


 12 10  0  0  1  0            999 V2000
   -0.6106    0.2275   -0.1706 C   0  0  0  0  0  0
   -1.3863   -0.5253    0.3800 C   0  0  0  0  0  0
    0.1074    0.8614   -0.6342 H   0  0  0  0  0  0
   -2.0807   -1.1741    0.8544 H   0  0  0  0  0  0
    4.7561   -1.3656    0.9945 C   0  0  0  0  0  0
    3.3805   -0.8841    0.6443 C   0  0  0  0  0  0
    3.1263    0.0720   -0.0545 O   0  0  0  0  0  0
    2.4326   -1.6585    1.2120 O   0  0  0  0  0  0
    5.4945   -0.7280    0.5236 H   0  0  0  0  0  0
    4.8823   -1.3537    2.0745 H   0  0  0  0  0  0
    4.8784   -2.3934    0.6612 H   0  0  0  0  0  0
    1.5716   -1.2912    0.9442 H   0  0  0  0  0  0
  1  2  3  0  0  0
  1  3  1  0  0  0
  2  4  1  0  0  0
  5  6  1  0  0  0
  6  7  2  0  0  0
  6  8  1  0  0  0
  5  9  1  0  0  0
  5 10  1  0  0  0
  5 11  1  0  0  0
  8 12  1  0  0  0
M  END
$$$$
