


 12 10  0  0  1  0            999 V2000
   -0.6106    0.2275   -0.1706 C   0  0  0  0  0  0
   -1.3863   -0.5253    0.3800 C   0  0  0  0  0  0
    0.1074    0.8614   -0.6342 H   0  0  0  0  0  0
   -2.0807   -1.1741    0.8544 H   0  0  0  0  0  0
    4.4456   -1.2276    0.8930 C   0  0  0  0  0  0
    3.0700   -0.7461    0.5429 C   0  0  0  0  0  0
    2.8158    0.2100   -0.1560 O   0  0  0  0  0  0
    2.1221   -1.5204    1.1106 O   0  0  0  0  0  0
    5.1840   -0.5900    0.4222 H   0  0  0  0  0  0
    4.5718   -1.2157    1.9731 H   0  0  0  0  0  0
    4.5679   -2.2554    0.5598 H   0  0  0  0  0  0
    1.2611   -1.1531    0.8428 H   0  0  0  0  0  0
  1  2  3  0  0  0
  1  3  1  0  0  0
  2  4  1  0  0  0
  5  6  1  0  0  0
  6  7  2  0  0  0
  6  8  1  0  0  0
  5  9  1  0  0  0
  5 10  1  0  0  0
  5 11  1  0  0  0
  8 12  1  0  0  0
M  END
$$$$
