


 12 10  0  0  1  0            999 V2000
   -0.6106    0.2275   -0.1706 C   0  0  0  0  0  0
   -1.3863   -0.5253    0.3800 C   0  0  0  0  0  0
    0.1074    0.8614   -0.6342 H   0  0  0  0  0  0
   -2.0807   -1.1741    0.8544 H   0  0  0  0  0  0
    6.2913   -2.0479    1.4960 C   0  0  0  0  0  0
    4.9157   -1.5665    1.1458 C   0  0  0  0  0  0
    4.6615   -0.6104    0.4470 O   0  0  0  0  0  0
    3.9678   -2.3408    1.7135 O   0  0  0  0  0  0
    7.0297   -1.4104    1.0251 H   0  0  0  0  0  0
    6.4176   -2.0361    2.5760 H   0  0  0  0  0  0
    6.4136   -3.0758    1.1627 H   0  0  0  0  0  0
    3.1068   -1.9735    1.4457 H   0  0  0  0  0  0
  1  2  3  0  0  0
  1  3  1  0  0  0
  2  4  1  0  0  0
  5  6  1  0  0  0
  6  7  2  0  0  0
  6  8  1  0  0  0
  5  9  1  0  0  0
  5 10  1  0  0  0
  5 11  1  0  0  0
  8 12  1  0  0  0
M  END
$$$$
