


 12 10  0  0  1  0            999 V2000
   -0.6106    0.2275   -0.1706 C   0  0  0  0  0  0
   -1.3863   -0.5253    0.3800 C   0  0  0  0  0  0
    0.1074    0.8614   -0.6342 H   0  0  0  0  0  0
   -2.0807   -1.1741    0.8544 H   0  0  0  0  0  0
    4.3416   -1.1813    0.8590 C   0  0  0  0  0  0
    2.9660   -0.6999    0.5089 C   0  0  0  0  0  0
    2.7118    0.2562   -0.1899 O   0  0  0  0  0  0
    2.0180   -1.4742    1.0766 O   0  0  0  0  0  0
    5.0800   -0.5438    0.3882 H   0  0  0  0  0  0
    4.4678   -1.1695    1.9391 H   0  0  0  0  0  0
    4.4639   -2.2092    0.5258 H   0  0  0  0  0  0
    1.1571   -1.1069    0.8088 H   0  0  0  0  0  0
  1  2  3  0  0  0
  1  3  1  0  0  0
  2  4  1  0  0  0
  5  6  1  0  0  0
  6  7  2  0  0  0
  6  8  1  0  0  0
  5  9  1  0  0  0
  5 10  1  0  0  0
  5 11  1  0  0  0
  8 12  1  0  0  0
M  END
$$$$
