


 12 10  0  0  1  0            999 V2000
   -0.6106    0.2275   -0.1706 C   0  0  0  0  0  0
   -1.3863   -0.5253    0.3800 C   0  0  0  0  0  0
    0.1074    0.8614   -0.6342 H   0  0  0  0  0  0
   -2.0807   -1.1741    0.8544 H   0  0  0  0  0  0
    4.2372   -1.1349    0.8249 C   0  0  0  0  0  0
    2.8615   -0.6535    0.4748 C   0  0  0  0  0  0
    2.6073    0.3026   -0.2241 O   0  0  0  0  0  0
    1.9136   -1.4278    1.0425 O   0  0  0  0  0  0
    4.9756   -0.4974    0.3541 H   0  0  0  0  0  0
    4.3634   -1.1231    1.9050 H   0  0  0  0  0  0
    4.3594   -2.1628    0.4917 H   0  0  0  0  0  0
    1.0526   -1.0605    0.7747 H   0  0  0  0  0  0
  1  2  3  0  0  0
  1  3  1  0  0  0
  2  4  1  0  0  0
  5  6  1  0  0  0
  6  7  2  0  0  0
  6  8  1  0  0  0
  5  9  1  0  0  0
  5 10  1  0  0  0
  5 11  1  0  0  0
  8 12  1  0  0  0
M  END
$$$$
