


 12 10  0  0  1  0            999 V2000
   -0.6106    0.2275   -0.1706 C   0  0  0  0  0  0
   -1.3863   -0.5253    0.3800 C   0  0  0  0  0  0
    0.1074    0.8614   -0.6342 H   0  0  0  0  0  0
   -2.0807   -1.1741    0.8544 H   0  0  0  0  0  0
    4.1325   -1.0884    0.7908 C   0  0  0  0  0  0
    2.7569   -0.6070    0.4406 C   0  0  0  0  0  0
    2.5027    0.3491   -0.2582 O   0  0  0  0  0  0
    1.8090   -1.3813    1.0083 O   0  0  0  0  0  0
    4.8709   -0.4509    0.3199 H   0  0  0  0  0  0
    4.2587   -1.0766    1.8708 H   0  0  0  0  0  0
    4.2548   -2.1163    0.4575 H   0  0  0  0  0  0
    0.9480   -1.0140    0.7405 H   0  0  0  0  0  0
  1  2  3  0  0  0
  1  3  1  0  0  0
  2  4  1  0  0  0
  5  6  1  0  0  0
  6  7  2  0  0  0
  6  8  1  0  0  0
  5  9  1  0  0  0
  5 10  1  0  0  0
  5 11  1  0  0  0
  8 12  1  0  0  0
M  END
$$$$
