


 12 10  0  0  1  0            999 V2000
   -0.6106    0.2275   -0.1706 C   0  0  0  0  0  0
   -1.3863   -0.5253    0.3800 C   0  0  0  0  0  0
    0.1074    0.8614   -0.6342 H   0  0  0  0  0  0
   -2.0807   -1.1741    0.8544 H   0  0  0  0  0  0
    5.2702   -1.5941    1.1624 C   0  0  0  0  0  0
    3.8946   -1.1126    0.8123 C   0  0  0  0  0  0
    3.6404   -0.1565    0.1134 O   0  0  0  0  0  0
    2.9467   -1.8870    1.3799 O   0  0  0  0  0  0
    6.0086   -0.9565    0.6916 H   0  0  0  0  0  0
    5.3964   -1.5822    2.2424 H   0  0  0  0  0  0
    5.3925   -2.6219    0.8292 H   0  0  0  0  0  0
    2.0857   -1.5197    1.1122 H   0  0  0  0  0  0
  1  2  3  0  0  0
  1  3  1  0  0  0
  2  4  1  0  0  0
  5  6  1  0  0  0
  6  7  2  0  0  0
  6  8  1  0  0  0
  5  9  1  0  0  0
  5 10  1  0  0  0
  5 11  1  0  0  0
  8 12  1  0  0  0
M  END
$$$$
