


 12 10  0  0  1  0            999 V2000
   -0.6106    0.2275   -0.1706 C   0  0  0  0  0  0
   -1.3863   -0.5253    0.3800 C   0  0  0  0  0  0
    0.1074    0.8614   -0.6342 H   0  0  0  0  0  0
   -2.0807   -1.1741    0.8544 H   0  0  0  0  0  0
    4.0274   -1.0417    0.7564 C   0  0  0  0  0  0
    2.6517   -0.5602    0.4062 C   0  0  0  0  0  0
    2.3976    0.3959   -0.2926 O   0  0  0  0  0  0
    1.7038   -1.3346    0.9739 O   0  0  0  0  0  0
    4.7658   -0.4041    0.2855 H   0  0  0  0  0  0
    4.1536   -1.0298    1.8364 H   0  0  0  0  0  0
    4.1497   -2.0695    0.4232 H   0  0  0  0  0  0
    0.8428   -0.9673    0.7062 H   0  0  0  0  0  0
  1  2  3  0  0  0
  1  3  1  0  0  0
  2  4  1  0  0  0
  5  6  1  0  0  0
  6  7  2  0  0  0
  6  8  1  0  0  0
  5  9  1  0  0  0
  5 10  1  0  0  0
  5 11  1  0  0  0
  8 12  1  0  0  0
M  END
$$$$
