


 21 20  0  0  1  0            999 V2000
   -0.0002    0.0698    6.9055 C   0  0  0  0  0  0
   -0.0231    0.1647    5.3970 C   0  0  0  0  0  0
    0.2234    1.2082    4.8098 O   0  0  0  0  0  0
   -0.3271   -0.9903    4.7459 N   0  0  0  0  0  0
    1.0315    0.1540    7.2405 H   0  0  0  0  0  0
   -0.4221   -0.8568    7.2865 H   0  0  0  0  0  0
   -0.5497    0.9137    7.3122 H   0  0  0  0  0  0
   -0.3019   -0.9973    3.7392 H   0  0  0  0  0  0
   -0.4829   -1.8458    5.2416 H   0  0  0  0  0  0
    0.8556    0.3585    1.0497 C   0  0  0  0  0  0
    1.3429   -0.6754    0.2512 C   0  0  0  0  0  0
    0.4778   -1.3767   -0.5878 C   0  0  0  0  0  0
   -0.8748   -1.0426   -0.6305 C   0  0  0  0  0  0
   -1.3624   -0.0070    0.1658 C   0  0  0  0  0  0
   -0.4984    0.6932    1.0070 C   0  0  0  0  0  0
    1.5138    0.9027    1.7128 H   0  0  0  0  0  0
    2.3929   -0.9333    0.2820 H   0  0  0  0  0  0
    0.8561   -2.1789   -1.2068 H   0  0  0  0  0  0
   -1.5454   -1.5857   -1.2824 H   0  0  0  0  0  0
   -2.4116    0.2535    0.1308 H   0  0  0  0  0  0
   -0.8661    1.4903    1.6380 H   0  0  0  0  0  0
  1  2  1  0  0  0
  2  3  2  0  0  0
  2  4  1  0  0  0
  1  5  1  0  0  0
  1  6  1  0  0  0
  1  7  1  0  0  0
  4  8  1  0  0  0
  4  9  1  0  0  0
 10 11  1  0  0  0
 11 12  2  0  0  0
 12 13  1  0  0  0
 13 14  2  0  0  0
 14 15  1  0  0  0
 10 15  2  0  0  0
 10 16  1  0  0  0
 11 17  1  0  0  0
 12 18  1  0  0  0
 13 19  1  0  0  0
 14 20  1  0  0  0
 15 21  1  0  0  0
M  END
$$$$
