


 21 20  0  0  1  0            999 V2000
   -0.1005   -0.2481    7.4713 C   0  0  0  0  0  0
   -0.1233   -0.1532    5.9629 C   0  0  0  0  0  0
    0.1231    0.8902    5.3757 O   0  0  0  0  0  0
   -0.4274   -1.3082    5.3117 N   0  0  0  0  0  0
    0.9312   -0.1639    7.8064 H   0  0  0  0  0  0
   -0.5224   -1.1747    7.8524 H   0  0  0  0  0  0
   -0.6500    0.5957    7.8781 H   0  0  0  0  0  0
   -0.4022   -1.3152    4.3051 H   0  0  0  0  0  0
   -0.5832   -2.1637    5.8074 H   0  0  0  0  0  0
    0.8556    0.3585    1.0497 C   0  0  0  0  0  0
    1.3429   -0.6754    0.2512 C   0  0  0  0  0  0
    0.4778   -1.3767   -0.5878 C   0  0  0  0  0  0
   -0.8748   -1.0426   -0.6305 C   0  0  0  0  0  0
   -1.3624   -0.0070    0.1658 C   0  0  0  0  0  0
   -0.4984    0.6932    1.0070 C   0  0  0  0  0  0
    1.5138    0.9027    1.7128 H   0  0  0  0  0  0
    2.3929   -0.9333    0.2820 H   0  0  0  0  0  0
    0.8561   -2.1789   -1.2068 H   0  0  0  0  0  0
   -1.5454   -1.5857   -1.2824 H   0  0  0  0  0  0
   -2.4116    0.2535    0.1308 H   0  0  0  0  0  0
   -0.8661    1.4903    1.6380 H   0  0  0  0  0  0
  1  2  1  0  0  0
  2  3  2  0  0  0
  2  4  1  0  0  0
  1  5  1  0  0  0
  1  6  1  0  0  0
  1  7  1  0  0  0
  4  8  1  0  0  0
  4  9  1  0  0  0
 10 11  1  0  0  0
 11 12  2  0  0  0
 12 13  1  0  0  0
 13 14  2  0  0  0
 14 15  1  0  0  0
 10 15  2  0  0  0
 10 16  1  0  0  0
 11 17  1  0  0  0
 12 18  1  0  0  0
 13 19  1  0  0  0
 14 20  1  0  0  0
 15 21  1  0  0  0
M  END
$$$$
