


 21 20  0  0  1  0            999 V2000
    0.1011    0.3911    6.3337 C   0  0  0  0  0  0
    0.0783    0.4860    4.8253 C   0  0  0  0  0  0
    0.3248    1.5294    4.2380 O   0  0  0  0  0  0
   -0.2257   -0.6690    4.1741 N   0  0  0  0  0  0
    1.1329    0.4753    6.6687 H   0  0  0  0  0  0
   -0.3208   -0.5355    6.7147 H   0  0  0  0  0  0
   -0.4483    1.2350    6.7404 H   0  0  0  0  0  0
   -0.2006   -0.6760    3.1674 H   0  0  0  0  0  0
   -0.3815   -1.5245    4.6698 H   0  0  0  0  0  0
    0.8556    0.3585    1.0497 C   0  0  0  0  0  0
    1.3429   -0.6754    0.2512 C   0  0  0  0  0  0
    0.4778   -1.3767   -0.5878 C   0  0  0  0  0  0
   -0.8748   -1.0426   -0.6305 C   0  0  0  0  0  0
   -1.3624   -0.0070    0.1658 C   0  0  0  0  0  0
   -0.4984    0.6932    1.0070 C   0  0  0  0  0  0
    1.5138    0.9027    1.7128 H   0  0  0  0  0  0
    2.3929   -0.9333    0.2820 H   0  0  0  0  0  0
    0.8561   -2.1789   -1.2068 H   0  0  0  0  0  0
   -1.5454   -1.5857   -1.2824 H   0  0  0  0  0  0
   -2.4116    0.2535    0.1308 H   0  0  0  0  0  0
   -0.8661    1.4903    1.6380 H   0  0  0  0  0  0
  1  2  1  0  0  0
  2  3  2  0  0  0
  2  4  1  0  0  0
  1  5  1  0  0  0
  1  6  1  0  0  0
  1  7  1  0  0  0
  4  8  1  0  0  0
  4  9  1  0  0  0
 10 11  1  0  0  0
 11 12  2  0  0  0
 12 13  1  0  0  0
 13 14  2  0  0  0
 14 15  1  0  0  0
 10 15  2  0  0  0
 10 16  1  0  0  0
 11 17  1  0  0  0
 12 18  1  0  0  0
 13 19  1  0  0  0
 14 20  1  0  0  0
 15 21  1  0  0  0
M  END
$$$$
