


 21 20  0  0  1  0            999 V2000
    0.0807    0.3264    6.4488 C   0  0  0  0  0  0
    0.0579    0.4213    4.9404 C   0  0  0  0  0  0
    0.3044    1.4648    4.3531 O   0  0  0  0  0  0
   -0.2462   -0.7337    4.2892 N   0  0  0  0  0  0
    1.1125    0.4106    6.7839 H   0  0  0  0  0  0
   -0.3412   -0.6002    6.8298 H   0  0  0  0  0  0
   -0.4687    1.1703    6.8555 H   0  0  0  0  0  0
   -0.2210   -0.7407    3.2826 H   0  0  0  0  0  0
   -0.4019   -1.5892    4.7849 H   0  0  0  0  0  0
    0.8556    0.3585    1.0497 C   0  0  0  0  0  0
    1.3429   -0.6754    0.2512 C   0  0  0  0  0  0
    0.4778   -1.3767   -0.5878 C   0  0  0  0  0  0
   -0.8748   -1.0426   -0.6305 C   0  0  0  0  0  0
   -1.3624   -0.0070    0.1658 C   0  0  0  0  0  0
   -0.4984    0.6932    1.0070 C   0  0  0  0  0  0
    1.5138    0.9027    1.7128 H   0  0  0  0  0  0
    2.3929   -0.9333    0.2820 H   0  0  0  0  0  0
    0.8561   -2.1789   -1.2068 H   0  0  0  0  0  0
   -1.5454   -1.5857   -1.2824 H   0  0  0  0  0  0
   -2.4116    0.2535    0.1308 H   0  0  0  0  0  0
   -0.8661    1.4903    1.6380 H   0  0  0  0  0  0
  1  2  1  0  0  0
  2  3  2  0  0  0
  2  4  1  0  0  0
  1  5  1  0  0  0
  1  6  1  0  0  0
  1  7  1  0  0  0
  4  8  1  0  0  0
  4  9  1  0  0  0
 10 11  1  0  0  0
 11 12  2  0  0  0
 12 13  1  0  0  0
 13 14  2  0  0  0
 14 15  1  0  0  0
 10 15  2  0  0  0
 10 16  1  0  0  0
 11 17  1  0  0  0
 12 18  1  0  0  0
 13 19  1  0  0  0
 14 20  1  0  0  0
 15 21  1  0  0  0
M  END
$$$$
