


 18 17  0  0  1  0            999 V2000
   -0.8390   -0.7458    3.8450 C   0  0  0  0  0  0
    0.0572    0.3119    3.5620 O   0  0  0  0  0  0
   -0.9347   -0.8025    4.9260 H   0  0  0  0  0  0
   -1.8311   -0.5741    3.4213 H   0  0  0  0  0  0
   -0.4725   -1.7088    3.4821 H   0  0  0  0  0  0
    0.1433    0.3617    2.6048 H   0  0  0  0  0  0
    0.7598    1.0313    0.3738 C   0  0  0  0  0  0
    1.2666   -0.2674    0.4213 C   0  0  0  0  0  0
    0.3953   -1.3560    0.4249 C   0  0  0  0  0  0
   -0.9822   -1.1466    0.3813 C   0  0  0  0  0  0
   -1.4893    0.1512    0.3376 C   0  0  0  0  0  0
   -0.6188    1.2403    0.3339 C   0  0  0  0  0  0
    1.4350    1.8757    0.3747 H   0  0  0  0  0  0
    2.3349   -0.4292    0.4594 H   0  0  0  0  0  0
    0.7887   -2.3625    0.4630 H   0  0  0  0  0  0
   -1.6577   -1.9911    0.3851 H   0  0  0  0  0  0
   -2.5580    0.3137    0.3077 H   0  0  0  0  0  0
   -1.0118    2.2471    0.3044 H   0  0  0  0  0  0
  1  2  1  0  0  0
  1  3  1  0  0  0
  1  4  1  0  0  0
  1  5  1  0  0  0
  2  6  1  0  0  0
  7  8  1  0  0  0
  8  9  2  0  0  0
  9 10  1  0  0  0
 10 11  2  0  0  0
 11 12  1  0  0  0
  7 12  2  0  0  0
  7 13  1  0  0  0
  8 14  1  0  0  0
  9 15  1  0  0  0
 10 16  1  0  0  0
 11 17  1  0  0  0
 12 18  1  0  0  0
M  END
$$$$
