


 14 12  0  0  1  0            999 V2000
   -1.1987    0.3914    1.3920 C   0  0  0  0  0  0
   -0.6386    0.4709    0.0446 N   0  0  0  0  0  0
   -2.0927    1.0092    1.4532 H   0  0  0  0  0  0
   -1.4627   -0.6158    1.7294 H   0  0  0  0  0  0
   -0.4803    0.7987    2.1011 H   0  0  0  0  0  0
    0.1900   -0.1139   -0.0058 H   0  0  0  0  0  0
   -1.3005    0.0813   -0.6137 H   0  0  0  0  0  0
    2.4789    0.6921    1.1034 C   0  0  0  0  0  0
    2.3187   -0.4431    0.1897 N   0  0  0  0  0  0
    2.2087    0.3774    2.1090 H   0  0  0  0  0  0
    3.4863    1.1139    1.1403 H   0  0  0  0  0  0
    1.7864    1.4779    0.8107 H   0  0  0  0  0  0
    2.6149   -0.1686   -0.7383 H   0  0  0  0  0  0
    2.9422   -1.1908    0.4649 H   0  0  0  0  0  0
  1  2  1  0  0  0
  1  3  1  0  0  0
  1  4  1  0  0  0
  1  5  1  0  0  0
  2  6  1  0  0  0
  2  7  1  0  0  0
  8  9  1  0  0  0
  8 10  1  0  0  0
  8 11  1  0  0  0
  8 12  1  0  0  0
  9 13  1  0  0  0
  9 14  1  0  0  0
M  END
$$$$
