


 14 12  0  0  1  0            999 V2000
   -1.1987    0.3914    1.3920 C   0  0  0  0  0  0
   -0.6386    0.4709    0.0446 N   0  0  0  0  0  0
   -2.0927    1.0092    1.4532 H   0  0  0  0  0  0
   -1.4627   -0.6158    1.7294 H   0  0  0  0  0  0
   -0.4803    0.7987    2.1011 H   0  0  0  0  0  0
    0.1900   -0.1139   -0.0058 H   0  0  0  0  0  0
   -1.3005    0.0813   -0.6137 H   0  0  0  0  0  0
    3.1511    0.5882    1.1651 C   0  0  0  0  0  0
    2.9909   -0.5471    0.2514 N   0  0  0  0  0  0
    2.8809    0.2734    2.1707 H   0  0  0  0  0  0
    4.1585    1.0099    1.2020 H   0  0  0  0  0  0
    2.4586    1.3739    0.8724 H   0  0  0  0  0  0
    3.2871   -0.2725   -0.6766 H   0  0  0  0  0  0
    3.6144   -1.2947    0.5266 H   0  0  0  0  0  0
  1  2  1  0  0  0
  1  3  1  0  0  0
  1  4  1  0  0  0
  1  5  1  0  0  0
  2  6  1  0  0  0
  2  7  1  0  0  0
  8  9  1  0  0  0
  8 10  1  0  0  0
  8 11  1  0  0  0
  8 12  1  0  0  0
  9 13  1  0  0  0
  9 14  1  0  0  0
M  END
$$$$
