


 14 12  0  0  1  0            999 V2000
   -1.1987    0.3914    1.3920 C   0  0  0  0  0  0
   -0.6386    0.4709    0.0446 N   0  0  0  0  0  0
   -2.0927    1.0092    1.4532 H   0  0  0  0  0  0
   -1.4627   -0.6158    1.7294 H   0  0  0  0  0  0
   -0.4803    0.7987    2.1011 H   0  0  0  0  0  0
    0.1900   -0.1139   -0.0058 H   0  0  0  0  0  0
   -1.3005    0.0813   -0.6137 H   0  0  0  0  0  0
    2.5908    0.6748    1.1136 C   0  0  0  0  0  0
    2.4306   -0.4604    0.2000 N   0  0  0  0  0  0
    2.3207    0.3601    2.1193 H   0  0  0  0  0  0
    3.5982    1.0966    1.1506 H   0  0  0  0  0  0
    1.8983    1.4606    0.8210 H   0  0  0  0  0  0
    2.7269   -0.1859   -0.7280 H   0  0  0  0  0  0
    3.0542   -1.2081    0.4751 H   0  0  0  0  0  0
  1  2  1  0  0  0
  1  3  1  0  0  0
  1  4  1  0  0  0
  1  5  1  0  0  0
  2  6  1  0  0  0
  2  7  1  0  0  0
  8  9  1  0  0  0
  8 10  1  0  0  0
  8 11  1  0  0  0
  8 12  1  0  0  0
  9 13  1  0  0  0
  9 14  1  0  0  0
M  END
$$$$
