


 14 12  0  0  1  0            999 V2000
   -1.1987    0.3914    1.3920 C   0  0  0  0  0  0
   -0.6386    0.4709    0.0446 N   0  0  0  0  0  0
   -2.0927    1.0092    1.4532 H   0  0  0  0  0  0
   -1.4627   -0.6158    1.7294 H   0  0  0  0  0  0
   -0.4803    0.7987    2.1011 H   0  0  0  0  0  0
    0.1900   -0.1139   -0.0058 H   0  0  0  0  0  0
   -1.3005    0.0813   -0.6137 H   0  0  0  0  0  0
    5.1505    0.2790    1.3486 C   0  0  0  0  0  0
    4.9903   -0.8562    0.4350 N   0  0  0  0  0  0
    4.8803   -0.0357    2.3543 H   0  0  0  0  0  0
    6.1579    0.7007    1.3856 H   0  0  0  0  0  0
    4.4580    1.0647    1.0560 H   0  0  0  0  0  0
    5.2865   -0.5817   -0.4930 H   0  0  0  0  0  0
    5.6138   -1.6039    0.7102 H   0  0  0  0  0  0
  1  2  1  0  0  0
  1  3  1  0  0  0
  1  4  1  0  0  0
  1  5  1  0  0  0
  2  6  1  0  0  0
  2  7  1  0  0  0
  8  9  1  0  0  0
  8 10  1  0  0  0
  8 11  1  0  0  0
  8 12  1  0  0  0
  9 13  1  0  0  0
  9 14  1  0  0  0
M  END
$$$$
