


 14 12  0  0  1  0            999 V2000
   -1.1987    0.3914    1.3920 C   0  0  0  0  0  0
   -0.6386    0.4709    0.0446 N   0  0  0  0  0  0
   -2.0927    1.0092    1.4532 H   0  0  0  0  0  0
   -1.4627   -0.6158    1.7294 H   0  0  0  0  0  0
   -0.4803    0.7987    2.1011 H   0  0  0  0  0  0
    0.1900   -0.1139   -0.0058 H   0  0  0  0  0  0
   -1.3005    0.0813   -0.6137 H   0  0  0  0  0  0
    3.8613    0.4783    1.2303 C   0  0  0  0  0  0
    3.7011   -0.6569    0.3166 N   0  0  0  0  0  0
    3.5911    0.1636    2.2359 H   0  0  0  0  0  0
    4.8687    0.9001    1.2672 H   0  0  0  0  0  0
    3.1687    1.2641    0.9376 H   0  0  0  0  0  0
    3.9973   -0.3823   -0.6114 H   0  0  0  0  0  0
    4.3246   -1.4046    0.5918 H   0  0  0  0  0  0
  1  2  1  0  0  0
  1  3  1  0  0  0
  1  4  1  0  0  0
  1  5  1  0  0  0
  2  6  1  0  0  0
  2  7  1  0  0  0
  8  9  1  0  0  0
  8 10  1  0  0  0
  8 11  1  0  0  0
  8 12  1  0  0  0
  9 13  1  0  0  0
  9 14  1  0  0  0
M  END
$$$$
