


 14 12  0  0  1  0            999 V2000
   -1.1987    0.3914    1.3920 C   0  0  0  0  0  0
   -0.6386    0.4709    0.0446 N   0  0  0  0  0  0
   -2.0927    1.0092    1.4532 H   0  0  0  0  0  0
   -1.4627   -0.6158    1.7294 H   0  0  0  0  0  0
   -0.4803    0.7987    2.1011 H   0  0  0  0  0  0
    0.1900   -0.1139   -0.0058 H   0  0  0  0  0  0
   -1.3005    0.0813   -0.6137 H   0  0  0  0  0  0
    2.7030    0.6575    1.1239 C   0  0  0  0  0  0
    2.5427   -0.4778    0.2103 N   0  0  0  0  0  0
    2.4328    0.3428    2.1296 H   0  0  0  0  0  0
    3.7104    1.0792    1.1609 H   0  0  0  0  0  0
    2.0104    1.4432    0.8313 H   0  0  0  0  0  0
    2.8390   -0.2032   -0.7177 H   0  0  0  0  0  0
    3.1663   -1.2255    0.4854 H   0  0  0  0  0  0
  1  2  1  0  0  0
  1  3  1  0  0  0
  1  4  1  0  0  0
  1  5  1  0  0  0
  2  6  1  0  0  0
  2  7  1  0  0  0
  8  9  1  0  0  0
  8 10  1  0  0  0
  8 11  1  0  0  0
  8 12  1  0  0  0
  9 13  1  0  0  0
  9 14  1  0  0  0
M  END
$$$$
