


 14 12  0  0  1  0            999 V2000
   -1.1987    0.3914    1.3920 C   0  0  0  0  0  0
   -0.6386    0.4709    0.0446 N   0  0  0  0  0  0
   -2.0927    1.0092    1.4532 H   0  0  0  0  0  0
   -1.4627   -0.6158    1.7294 H   0  0  0  0  0  0
   -0.4803    0.7987    2.1011 H   0  0  0  0  0  0
    0.1900   -0.1139   -0.0058 H   0  0  0  0  0  0
   -1.3005    0.0813   -0.6137 H   0  0  0  0  0  0
    2.3669    0.7094    1.0931 C   0  0  0  0  0  0
    2.2066   -0.4258    0.1794 N   0  0  0  0  0  0
    2.0967    0.3947    2.0987 H   0  0  0  0  0  0
    3.3743    1.1312    1.1300 H   0  0  0  0  0  0
    1.6743    1.4952    0.8004 H   0  0  0  0  0  0
    2.5029   -0.1513   -0.7486 H   0  0  0  0  0  0
    2.8302   -1.1735    0.4546 H   0  0  0  0  0  0
  1  2  1  0  0  0
  1  3  1  0  0  0
  1  4  1  0  0  0
  1  5  1  0  0  0
  2  6  1  0  0  0
  2  7  1  0  0  0
  8  9  1  0  0  0
  8 10  1  0  0  0
  8 11  1  0  0  0
  8 12  1  0  0  0
  9 13  1  0  0  0
  9 14  1  0  0  0
M  END
$$$$
