


 14 12  0  0  1  0            999 V2000
   -1.1987    0.3914    1.3920 C   0  0  0  0  0  0
   -0.6386    0.4709    0.0446 N   0  0  0  0  0  0
   -2.0927    1.0092    1.4532 H   0  0  0  0  0  0
   -1.4627   -0.6158    1.7294 H   0  0  0  0  0  0
   -0.4803    0.7987    2.1011 H   0  0  0  0  0  0
    0.1900   -0.1139   -0.0058 H   0  0  0  0  0  0
   -1.3005    0.0813   -0.6137 H   0  0  0  0  0  0
    2.8150    0.6401    1.1342 C   0  0  0  0  0  0
    2.6548   -0.4951    0.2205 N   0  0  0  0  0  0
    2.5448    0.3254    2.1399 H   0  0  0  0  0  0
    3.8224    1.0619    1.1712 H   0  0  0  0  0  0
    2.1225    1.4259    0.8416 H   0  0  0  0  0  0
    2.9510   -0.2206   -0.7074 H   0  0  0  0  0  0
    3.2783   -1.2428    0.4957 H   0  0  0  0  0  0
  1  2  1  0  0  0
  1  3  1  0  0  0
  1  4  1  0  0  0
  1  5  1  0  0  0
  2  6  1  0  0  0
  2  7  1  0  0  0
  8  9  1  0  0  0
  8 10  1  0  0  0
  8 11  1  0  0  0
  8 12  1  0  0  0
  9 13  1  0  0  0
  9 14  1  0  0  0
M  END
$$$$
