


 12 10  0  0  1  0            999 V2000
   -1.1521   -1.3113    0.0153 C   0  0  0  0  0  0
   -0.6361   -0.0233    0.2806 O   0  0  0  0  0  0
   -2.2099   -1.2963    0.2640 H   0  0  0  0  0  0
   -1.0566   -1.5927   -1.0362 H   0  0  0  0  0  0
   -0.6748   -2.0863    0.6205 H   0  0  0  0  0  0
    0.3081   -0.0471    0.0765 H   0  0  0  0  0  0
    2.7501    0.0337    1.3082 C   0  0  0  0  0  0
    2.2412   -0.1233   -0.0135 O   0  0  0  0  0  0
    2.1965   -0.6545    1.9383 H   0  0  0  0  0  0
    3.8091   -0.2168    1.3649 H   0  0  0  0  0  0
    2.5976    1.0444    1.6861 H   0  0  0  0  0  0
    2.7100    0.4911   -0.5832 H   0  0  0  0  0  0
  1  2  1  0  0  0
  1  3  1  0  0  0
  1  4  1  0  0  0
  1  5  1  0  0  0
  2  6  1  0  0  0
  7  8  1  0  0  0
  7  9  1  0  0  0
  7 10  1  0  0  0
  7 11  1  0  0  0
  8 12  1  0  0  0
M  END
$$$$
