


 12 10  0  0  1  0            999 V2000
   -1.1521   -1.3113    0.0153 C   0  0  0  0  0  0
   -0.6361   -0.0233    0.2806 O   0  0  0  0  0  0
   -2.2099   -1.2963    0.2640 H   0  0  0  0  0  0
   -1.0566   -1.5927   -1.0362 H   0  0  0  0  0  0
   -0.6748   -2.0863    0.6205 H   0  0  0  0  0  0
    0.3081   -0.0471    0.0765 H   0  0  0  0  0  0
    2.5569    0.0413    1.3172 C   0  0  0  0  0  0
    2.0480   -0.1157   -0.0045 O   0  0  0  0  0  0
    2.0033   -0.6469    1.9473 H   0  0  0  0  0  0
    3.6159   -0.2091    1.3739 H   0  0  0  0  0  0
    2.4044    1.0520    1.6951 H   0  0  0  0  0  0
    2.5168    0.4987   -0.5742 H   0  0  0  0  0  0
  1  2  1  0  0  0
  1  3  1  0  0  0
  1  4  1  0  0  0
  1  5  1  0  0  0
  2  6  1  0  0  0
  7  8  1  0  0  0
  7  9  1  0  0  0
  7 10  1  0  0  0
  7 11  1  0  0  0
  8 12  1  0  0  0
M  END
$$$$
