


 12 10  0  0  1  0            999 V2000
   -1.1521   -1.3113    0.0153 C   0  0  0  0  0  0
   -0.6361   -0.0233    0.2806 O   0  0  0  0  0  0
   -2.2099   -1.2963    0.2640 H   0  0  0  0  0  0
   -1.0566   -1.5927   -1.0362 H   0  0  0  0  0  0
   -0.6748   -2.0863    0.6205 H   0  0  0  0  0  0
    0.3081   -0.0471    0.0765 H   0  0  0  0  0  0
    4.6833   -0.0426    1.2182 C   0  0  0  0  0  0
    4.1745   -0.1996   -0.1035 O   0  0  0  0  0  0
    4.1298   -0.7308    1.8483 H   0  0  0  0  0  0
    5.7423   -0.2930    1.2749 H   0  0  0  0  0  0
    4.5309    0.9681    1.5961 H   0  0  0  0  0  0
    4.6433    0.4148   -0.6732 H   0  0  0  0  0  0
  1  2  1  0  0  0
  1  3  1  0  0  0
  1  4  1  0  0  0
  1  5  1  0  0  0
  2  6  1  0  0  0
  7  8  1  0  0  0
  7  9  1  0  0  0
  7 10  1  0  0  0
  7 11  1  0  0  0
  8 12  1  0  0  0
M  END
$$$$
