


 12 10  0  0  1  0            999 V2000
   -1.1521   -1.3113    0.0153 C   0  0  0  0  0  0
   -0.6361   -0.0233    0.2806 O   0  0  0  0  0  0
   -2.2099   -1.2963    0.2640 H   0  0  0  0  0  0
   -1.0566   -1.5927   -1.0362 H   0  0  0  0  0  0
   -0.6748   -2.0863    0.6205 H   0  0  0  0  0  0
    0.3081   -0.0471    0.0765 H   0  0  0  0  0  0
    2.9435    0.0260    1.2992 C   0  0  0  0  0  0
    2.4347   -0.1310   -0.0225 O   0  0  0  0  0  0
    2.3899   -0.6622    1.9293 H   0  0  0  0  0  0
    4.0025   -0.2244    1.3559 H   0  0  0  0  0  0
    2.7910    1.0367    1.6771 H   0  0  0  0  0  0
    2.9035    0.4834   -0.5922 H   0  0  0  0  0  0
  1  2  1  0  0  0
  1  3  1  0  0  0
  1  4  1  0  0  0
  1  5  1  0  0  0
  2  6  1  0  0  0
  7  8  1  0  0  0
  7  9  1  0  0  0
  7 10  1  0  0  0
  7 11  1  0  0  0
  8 12  1  0  0  0
M  END
$$$$
