


 12 10  0  0  1  0            999 V2000
   -1.1521   -1.3113    0.0153 C   0  0  0  0  0  0
   -0.6361   -0.0233    0.2806 O   0  0  0  0  0  0
   -2.2099   -1.2963    0.2640 H   0  0  0  0  0  0
   -1.0566   -1.5927   -1.0362 H   0  0  0  0  0  0
   -0.6748   -2.0863    0.6205 H   0  0  0  0  0  0
    0.3081   -0.0471    0.0765 H   0  0  0  0  0  0
    2.6535    0.0375    1.3127 C   0  0  0  0  0  0
    2.1447   -0.1195   -0.0090 O   0  0  0  0  0  0
    2.1000   -0.6507    1.9428 H   0  0  0  0  0  0
    3.7125   -0.2130    1.3694 H   0  0  0  0  0  0
    2.5011    1.0482    1.6906 H   0  0  0  0  0  0
    2.6135    0.4949   -0.5787 H   0  0  0  0  0  0
  1  2  1  0  0  0
  1  3  1  0  0  0
  1  4  1  0  0  0
  1  5  1  0  0  0
  2  6  1  0  0  0
  7  8  1  0  0  0
  7  9  1  0  0  0
  7 10  1  0  0  0
  7 11  1  0  0  0
  8 12  1  0  0  0
M  END
$$$$
