


 12 10  0  0  1  0            999 V2000
   -1.1521   -1.3113    0.0153 C   0  0  0  0  0  0
   -0.6361   -0.0233    0.2806 O   0  0  0  0  0  0
   -2.2099   -1.2963    0.2640 H   0  0  0  0  0  0
   -1.0566   -1.5927   -1.0362 H   0  0  0  0  0  0
   -0.6748   -2.0863    0.6205 H   0  0  0  0  0  0
    0.3081   -0.0471    0.0765 H   0  0  0  0  0  0
    3.7167   -0.0044    1.2632 C   0  0  0  0  0  0
    3.2079   -0.1615   -0.0585 O   0  0  0  0  0  0
    3.1632   -0.6927    1.8933 H   0  0  0  0  0  0
    4.7758   -0.2549    1.3199 H   0  0  0  0  0  0
    3.5643    1.0062    1.6411 H   0  0  0  0  0  0
    3.6767    0.4529   -0.6282 H   0  0  0  0  0  0
  1  2  1  0  0  0
  1  3  1  0  0  0
  1  4  1  0  0  0
  1  5  1  0  0  0
  2  6  1  0  0  0
  7  8  1  0  0  0
  7  9  1  0  0  0
  7 10  1  0  0  0
  7 11  1  0  0  0
  8 12  1  0  0  0
M  END
$$$$
