


 12 10  0  0  1  0            999 V2000
   -1.1521   -1.3113    0.0153 C   0  0  0  0  0  0
   -0.6361   -0.0233    0.2806 O   0  0  0  0  0  0
   -2.2099   -1.2963    0.2640 H   0  0  0  0  0  0
   -1.0566   -1.5927   -1.0362 H   0  0  0  0  0  0
   -0.6748   -2.0863    0.6205 H   0  0  0  0  0  0
    0.3081   -0.0471    0.0765 H   0  0  0  0  0  0
    2.8468    0.0299    1.3037 C   0  0  0  0  0  0
    2.3380   -0.1271   -0.0180 O   0  0  0  0  0  0
    2.2933   -0.6583    1.9338 H   0  0  0  0  0  0
    3.9058   -0.2206    1.3604 H   0  0  0  0  0  0
    2.6944    1.0406    1.6816 H   0  0  0  0  0  0
    2.8068    0.4872   -0.5877 H   0  0  0  0  0  0
  1  2  1  0  0  0
  1  3  1  0  0  0
  1  4  1  0  0  0
  1  5  1  0  0  0
  2  6  1  0  0  0
  7  8  1  0  0  0
  7  9  1  0  0  0
  7 10  1  0  0  0
  7 11  1  0  0  0
  8 12  1  0  0  0
M  END
$$$$
