


 12 10  0  0  1  0            999 V2000
   -1.1521   -1.3113    0.0153 C   0  0  0  0  0  0
   -0.6361   -0.0233    0.2806 O   0  0  0  0  0  0
   -2.2099   -1.2963    0.2640 H   0  0  0  0  0  0
   -1.0566   -1.5927   -1.0362 H   0  0  0  0  0  0
   -0.6748   -2.0863    0.6205 H   0  0  0  0  0  0
    0.3081   -0.0471    0.0765 H   0  0  0  0  0  0
    3.2335    0.0146    1.2857 C   0  0  0  0  0  0
    2.7247   -0.1424   -0.0360 O   0  0  0  0  0  0
    2.6799   -0.6736    1.9158 H   0  0  0  0  0  0
    4.2925   -0.2358    1.3424 H   0  0  0  0  0  0
    3.0811    1.0253    1.6636 H   0  0  0  0  0  0
    3.1935    0.4720   -0.6057 H   0  0  0  0  0  0
  1  2  1  0  0  0
  1  3  1  0  0  0
  1  4  1  0  0  0
  1  5  1  0  0  0
  2  6  1  0  0  0
  7  8  1  0  0  0
  7  9  1  0  0  0
  7 10  1  0  0  0
  7 11  1  0  0  0
  8 12  1  0  0  0
M  END
$$$$
