


 24 23  0  0  1  0            999 V2000
   -0.1950   -1.7765    4.2015 C   0  0  0  0  0  0
   -0.1582   -0.3496    3.9834 N   0  0  0  0  0  0
    0.2142    0.5161    4.9626 C   0  0  0  0  0  0
    0.4988    0.1637    6.1012 O   0  0  0  0  0  0
    0.2510    1.9692    4.5469 C   0  0  0  0  0  0
   -0.1169   -1.9434    5.2715 H   0  0  0  0  0  0
   -1.1303   -2.1949    3.8347 H   0  0  0  0  0  0
    0.6341   -2.2804    3.7041 H   0  0  0  0  0  0
   -0.3194    0.0084    3.0573 H   0  0  0  0  0  0
   -0.1071    2.1350    3.5336 H   0  0  0  0  0  0
    1.2756    2.3260    4.6284 H   0  0  0  0  0  0
   -0.3531    2.5429    5.2453 H   0  0  0  0  0  0
    0.4088    1.0510    0.3755 C   0  0  0  0  0  0
    1.0192   -0.1998    0.2891 C   0  0  0  0  0  0
    0.2417   -1.3569    0.2967 C   0  0  0  0  0  0
   -1.1462   -1.2643    0.3939 C   0  0  0  0  0  0
   -1.7573   -0.0140    0.4830 C   0  0  0  0  0  0
   -0.9797    1.1442    0.4723 C   0  0  0  0  0  0
    1.0119    1.9485    0.3681 H   0  0  0  0  0  0
    2.0956   -0.2718    0.2172 H   0  0  0  0  0  0
    0.7152   -2.3266    0.2281 H   0  0  0  0  0  0
   -1.7492   -2.1619    0.3994 H   0  0  0  0  0  0
   -2.8335    0.0582    0.5590 H   0  0  0  0  0  0
   -1.4540    2.1140    0.5371 H   0  0  0  0  0  0
  1  2  1  0  0  0
  2  3  1  0  0  0
  3  4  2  0  0  0
  3  5  1  0  0  0
  1  6  1  0  0  0
  1  7  1  0  0  0
  1  8  1  0  0  0
  2  9  1  0  0  0
  5 10  1  0  0  0
  5 11  1  0  0  0
  5 12  1  0  0  0
 13 14  1  0  0  0
 14 15  2  0  0  0
 15 16  1  0  0  0
 16 17  2  0  0  0
 17 18  1  0  0  0
 13 18  2  0  0  0
 13 19  1  0  0  0
 14 20  1  0  0  0
 15 21  1  0  0  0
 16 22  1  0  0  0
 17 23  1  0  0  0
 18 24  1  0  0  0
M  END
$$$$
