


 24 23  0  0  1  0            999 V2000
   -0.2066   -1.8032    3.5802 C   0  0  0  0  0  0
   -0.1698   -0.3764    3.3621 N   0  0  0  0  0  0
    0.2026    0.4894    4.3414 C   0  0  0  0  0  0
    0.4873    0.1370    5.4799 O   0  0  0  0  0  0
    0.2395    1.9425    3.9257 C   0  0  0  0  0  0
   -0.1285   -1.9701    4.6502 H   0  0  0  0  0  0
   -1.1418   -2.2216    3.2135 H   0  0  0  0  0  0
    0.6226   -2.3071    3.0829 H   0  0  0  0  0  0
   -0.3309   -0.0184    2.4361 H   0  0  0  0  0  0
   -0.1187    2.1082    2.9124 H   0  0  0  0  0  0
    1.2641    2.2992    4.0071 H   0  0  0  0  0  0
   -0.3646    2.5162    4.6240 H   0  0  0  0  0  0
    0.4088    1.0510    0.3755 C   0  0  0  0  0  0
    1.0192   -0.1998    0.2891 C   0  0  0  0  0  0
    0.2417   -1.3569    0.2967 C   0  0  0  0  0  0
   -1.1462   -1.2643    0.3939 C   0  0  0  0  0  0
   -1.7573   -0.0140    0.4830 C   0  0  0  0  0  0
   -0.9797    1.1442    0.4723 C   0  0  0  0  0  0
    1.0119    1.9485    0.3681 H   0  0  0  0  0  0
    2.0956   -0.2718    0.2172 H   0  0  0  0  0  0
    0.7152   -2.3266    0.2281 H   0  0  0  0  0  0
   -1.7492   -2.1619    0.3994 H   0  0  0  0  0  0
   -2.8335    0.0582    0.5590 H   0  0  0  0  0  0
   -1.4540    2.1140    0.5371 H   0  0  0  0  0  0
  1  2  1  0  0  0
  2  3  1  0  0  0
  3  4  2  0  0  0
  3  5  1  0  0  0
  1  6  1  0  0  0
  1  7  1  0  0  0
  1  8  1  0  0  0
  2  9  1  0  0  0
  5 10  1  0  0  0
  5 11  1  0  0  0
  5 12  1  0  0  0
 13 14  1  0  0  0
 14 15  2  0  0  0
 15 16  1  0  0  0
 16 17  2  0  0  0
 17 18  1  0  0  0
 13 18  2  0  0  0
 13 19  1  0  0  0
 14 20  1  0  0  0
 15 21  1  0  0  0
 16 22  1  0  0  0
 17 23  1  0  0  0
 18 24  1  0  0  0
M  END
$$$$
