


 24 23  0  0  1  0            999 V2000
   -0.1978   -1.7830    4.0504 C   0  0  0  0  0  0
   -0.1610   -0.3561    3.8323 N   0  0  0  0  0  0
    0.2114    0.5096    4.8116 C   0  0  0  0  0  0
    0.4960    0.1572    5.9501 O   0  0  0  0  0  0
    0.2482    1.9627    4.3959 C   0  0  0  0  0  0
   -0.1197   -1.9499    5.1204 H   0  0  0  0  0  0
   -1.1331   -2.2014    3.6837 H   0  0  0  0  0  0
    0.6313   -2.2869    3.5531 H   0  0  0  0  0  0
   -0.3222    0.0019    2.9063 H   0  0  0  0  0  0
   -0.1099    2.1285    3.3826 H   0  0  0  0  0  0
    1.2728    2.3195    4.4773 H   0  0  0  0  0  0
   -0.3559    2.5364    5.0942 H   0  0  0  0  0  0
    0.4088    1.0510    0.3755 C   0  0  0  0  0  0
    1.0192   -0.1998    0.2891 C   0  0  0  0  0  0
    0.2417   -1.3569    0.2967 C   0  0  0  0  0  0
   -1.1462   -1.2643    0.3939 C   0  0  0  0  0  0
   -1.7573   -0.0140    0.4830 C   0  0  0  0  0  0
   -0.9797    1.1442    0.4723 C   0  0  0  0  0  0
    1.0119    1.9485    0.3681 H   0  0  0  0  0  0
    2.0956   -0.2718    0.2172 H   0  0  0  0  0  0
    0.7152   -2.3266    0.2281 H   0  0  0  0  0  0
   -1.7492   -2.1619    0.3994 H   0  0  0  0  0  0
   -2.8335    0.0582    0.5590 H   0  0  0  0  0  0
   -1.4540    2.1140    0.5371 H   0  0  0  0  0  0
  1  2  1  0  0  0
  2  3  1  0  0  0
  3  4  2  0  0  0
  3  5  1  0  0  0
  1  6  1  0  0  0
  1  7  1  0  0  0
  1  8  1  0  0  0
  2  9  1  0  0  0
  5 10  1  0  0  0
  5 11  1  0  0  0
  5 12  1  0  0  0
 13 14  1  0  0  0
 14 15  2  0  0  0
 15 16  1  0  0  0
 16 17  2  0  0  0
 17 18  1  0  0  0
 13 18  2  0  0  0
 13 19  1  0  0  0
 14 20  1  0  0  0
 15 21  1  0  0  0
 16 22  1  0  0  0
 17 23  1  0  0  0
 18 24  1  0  0  0
M  END
$$$$
