


 24 23  0  0  1  0            999 V2000
   -0.1736   -1.7268    5.3569 C   0  0  0  0  0  0
   -0.1368   -0.2999    5.1388 N   0  0  0  0  0  0
    0.2356    0.5658    6.1181 C   0  0  0  0  0  0
    0.5202    0.2134    7.2566 O   0  0  0  0  0  0
    0.2724    2.0189    5.7024 C   0  0  0  0  0  0
   -0.0955   -1.8937    6.4269 H   0  0  0  0  0  0
   -1.1088   -2.1452    4.9902 H   0  0  0  0  0  0
    0.6555   -2.2307    4.8596 H   0  0  0  0  0  0
   -0.2979    0.0581    4.2128 H   0  0  0  0  0  0
   -0.0857    2.1847    4.6891 H   0  0  0  0  0  0
    1.2970    2.3757    5.7838 H   0  0  0  0  0  0
   -0.3317    2.5926    6.4007 H   0  0  0  0  0  0
    0.4088    1.0510    0.3755 C   0  0  0  0  0  0
    1.0192   -0.1998    0.2891 C   0  0  0  0  0  0
    0.2417   -1.3569    0.2967 C   0  0  0  0  0  0
   -1.1462   -1.2643    0.3939 C   0  0  0  0  0  0
   -1.7573   -0.0140    0.4830 C   0  0  0  0  0  0
   -0.9797    1.1442    0.4723 C   0  0  0  0  0  0
    1.0119    1.9485    0.3681 H   0  0  0  0  0  0
    2.0956   -0.2718    0.2172 H   0  0  0  0  0  0
    0.7152   -2.3266    0.2281 H   0  0  0  0  0  0
   -1.7492   -2.1619    0.3994 H   0  0  0  0  0  0
   -2.8335    0.0582    0.5590 H   0  0  0  0  0  0
   -1.4540    2.1140    0.5371 H   0  0  0  0  0  0
  1  2  1  0  0  0
  2  3  1  0  0  0
  3  4  2  0  0  0
  3  5  1  0  0  0
  1  6  1  0  0  0
  1  7  1  0  0  0
  1  8  1  0  0  0
  2  9  1  0  0  0
  5 10  1  0  0  0
  5 11  1  0  0  0
  5 12  1  0  0  0
 13 14  1  0  0  0
 14 15  2  0  0  0
 15 16  1  0  0  0
 16 17  2  0  0  0
 17 18  1  0  0  0
 13 18  2  0  0  0
 13 19  1  0  0  0
 14 20  1  0  0  0
 15 21  1  0  0  0
 16 22  1  0  0  0
 17 23  1  0  0  0
 18 24  1  0  0  0
M  END
$$$$
