


 24 23  0  0  1  0            999 V2000
   -0.1868   -1.7575    4.6437 C   0  0  0  0  0  0
   -0.1500   -0.3306    4.4256 N   0  0  0  0  0  0
    0.2224    0.5351    5.4048 C   0  0  0  0  0  0
    0.5070    0.1827    6.5433 O   0  0  0  0  0  0
    0.2592    1.9883    4.9891 C   0  0  0  0  0  0
   -0.1087   -1.9244    5.7136 H   0  0  0  0  0  0
   -1.1221   -2.1758    4.2769 H   0  0  0  0  0  0
    0.6423   -2.2614    4.1463 H   0  0  0  0  0  0
   -0.3112    0.0274    3.4995 H   0  0  0  0  0  0
   -0.0989    2.1540    3.9758 H   0  0  0  0  0  0
    1.2838    2.3450    5.0705 H   0  0  0  0  0  0
   -0.3449    2.5619    5.6874 H   0  0  0  0  0  0
    0.4088    1.0510    0.3755 C   0  0  0  0  0  0
    1.0192   -0.1998    0.2891 C   0  0  0  0  0  0
    0.2417   -1.3569    0.2967 C   0  0  0  0  0  0
   -1.1462   -1.2643    0.3939 C   0  0  0  0  0  0
   -1.7573   -0.0140    0.4830 C   0  0  0  0  0  0
   -0.9797    1.1442    0.4723 C   0  0  0  0  0  0
    1.0119    1.9485    0.3681 H   0  0  0  0  0  0
    2.0956   -0.2718    0.2172 H   0  0  0  0  0  0
    0.7152   -2.3266    0.2281 H   0  0  0  0  0  0
   -1.7492   -2.1619    0.3994 H   0  0  0  0  0  0
   -2.8335    0.0582    0.5590 H   0  0  0  0  0  0
   -1.4540    2.1140    0.5371 H   0  0  0  0  0  0
  1  2  1  0  0  0
  2  3  1  0  0  0
  3  4  2  0  0  0
  3  5  1  0  0  0
  1  6  1  0  0  0
  1  7  1  0  0  0
  1  8  1  0  0  0
  2  9  1  0  0  0
  5 10  1  0  0  0
  5 11  1  0  0  0
  5 12  1  0  0  0
 13 14  1  0  0  0
 14 15  2  0  0  0
 15 16  1  0  0  0
 16 17  2  0  0  0
 17 18  1  0  0  0
 13 18  2  0  0  0
 13 19  1  0  0  0
 14 20  1  0  0  0
 15 21  1  0  0  0
 16 22  1  0  0  0
 17 23  1  0  0  0
 18 24  1  0  0  0
M  END
$$$$
