


 24 23  0  0  1  0            999 V2000
   -0.1480   -1.6673    6.7391 C   0  0  0  0  0  0
   -0.1112   -0.2405    6.5210 N   0  0  0  0  0  0
    0.2612    0.6252    7.5003 C   0  0  0  0  0  0
    0.5458    0.2729    8.6388 O   0  0  0  0  0  0
    0.2981    2.0784    7.0846 C   0  0  0  0  0  0
   -0.0699   -1.8342    7.8091 H   0  0  0  0  0  0
   -1.0832   -2.0857    6.3724 H   0  0  0  0  0  0
    0.6812   -2.1712    6.2418 H   0  0  0  0  0  0
   -0.2723    0.1175    5.5950 H   0  0  0  0  0  0
   -0.0601    2.2441    6.0713 H   0  0  0  0  0  0
    1.3226    2.4351    7.1660 H   0  0  0  0  0  0
   -0.3060    2.6521    7.7829 H   0  0  0  0  0  0
    0.4088    1.0510    0.3755 C   0  0  0  0  0  0
    1.0192   -0.1998    0.2891 C   0  0  0  0  0  0
    0.2417   -1.3569    0.2967 C   0  0  0  0  0  0
   -1.1462   -1.2643    0.3939 C   0  0  0  0  0  0
   -1.7573   -0.0140    0.4830 C   0  0  0  0  0  0
   -0.9797    1.1442    0.4723 C   0  0  0  0  0  0
    1.0119    1.9485    0.3681 H   0  0  0  0  0  0
    2.0956   -0.2718    0.2172 H   0  0  0  0  0  0
    0.7152   -2.3266    0.2281 H   0  0  0  0  0  0
   -1.7492   -2.1619    0.3994 H   0  0  0  0  0  0
   -2.8335    0.0582    0.5590 H   0  0  0  0  0  0
   -1.4540    2.1140    0.5371 H   0  0  0  0  0  0
  1  2  1  0  0  0
  2  3  1  0  0  0
  3  4  2  0  0  0
  3  5  1  0  0  0
  1  6  1  0  0  0
  1  7  1  0  0  0
  1  8  1  0  0  0
  2  9  1  0  0  0
  5 10  1  0  0  0
  5 11  1  0  0  0
  5 12  1  0  0  0
 13 14  1  0  0  0
 14 15  2  0  0  0
 15 16  1  0  0  0
 16 17  2  0  0  0
 17 18  1  0  0  0
 13 18  2  0  0  0
 13 19  1  0  0  0
 14 20  1  0  0  0
 15 21  1  0  0  0
 16 22  1  0  0  0
 17 23  1  0  0  0
 18 24  1  0  0  0
M  END
$$$$
