


 24 23  0  0  1  0            999 V2000
   -0.2007   -1.7896    3.8968 C   0  0  0  0  0  0
   -0.1639   -0.3627    3.6787 N   0  0  0  0  0  0
    0.2085    0.5030    4.6580 C   0  0  0  0  0  0
    0.4931    0.1506    5.7965 O   0  0  0  0  0  0
    0.2454    1.9561    4.2423 C   0  0  0  0  0  0
   -0.1226   -1.9565    4.9668 H   0  0  0  0  0  0
   -1.1359   -2.2080    3.5301 H   0  0  0  0  0  0
    0.6284   -2.2935    3.3995 H   0  0  0  0  0  0
   -0.3250   -0.0047    2.7527 H   0  0  0  0  0  0
   -0.1128    2.1219    3.2290 H   0  0  0  0  0  0
    1.2699    2.3128    4.3237 H   0  0  0  0  0  0
   -0.3587    2.5298    4.9406 H   0  0  0  0  0  0
    0.4088    1.0510    0.3755 C   0  0  0  0  0  0
    1.0192   -0.1998    0.2891 C   0  0  0  0  0  0
    0.2417   -1.3569    0.2967 C   0  0  0  0  0  0
   -1.1462   -1.2643    0.3939 C   0  0  0  0  0  0
   -1.7573   -0.0140    0.4830 C   0  0  0  0  0  0
   -0.9797    1.1442    0.4723 C   0  0  0  0  0  0
    1.0119    1.9485    0.3681 H   0  0  0  0  0  0
    2.0956   -0.2718    0.2172 H   0  0  0  0  0  0
    0.7152   -2.3266    0.2281 H   0  0  0  0  0  0
   -1.7492   -2.1619    0.3994 H   0  0  0  0  0  0
   -2.8335    0.0582    0.5590 H   0  0  0  0  0  0
   -1.4540    2.1140    0.5371 H   0  0  0  0  0  0
  1  2  1  0  0  0
  2  3  1  0  0  0
  3  4  2  0  0  0
  3  5  1  0  0  0
  1  6  1  0  0  0
  1  7  1  0  0  0
  1  8  1  0  0  0
  2  9  1  0  0  0
  5 10  1  0  0  0
  5 11  1  0  0  0
  5 12  1  0  0  0
 13 14  1  0  0  0
 14 15  2  0  0  0
 15 16  1  0  0  0
 16 17  2  0  0  0
 17 18  1  0  0  0
 13 18  2  0  0  0
 13 19  1  0  0  0
 14 20  1  0  0  0
 15 21  1  0  0  0
 16 22  1  0  0  0
 17 23  1  0  0  0
 18 24  1  0  0  0
M  END
$$$$
