


 24 23  0  0  1  0            999 V2000
   -0.2036   -1.7964    3.7404 C   0  0  0  0  0  0
   -0.1668   -0.3695    3.5224 N   0  0  0  0  0  0
    0.2056    0.4963    4.5016 C   0  0  0  0  0  0
    0.4902    0.1439    5.6401 O   0  0  0  0  0  0
    0.2425    1.9494    4.0859 C   0  0  0  0  0  0
   -0.1255   -1.9633    4.8104 H   0  0  0  0  0  0
   -1.1388   -2.2147    3.3737 H   0  0  0  0  0  0
    0.6255   -2.3002    3.2431 H   0  0  0  0  0  0
   -0.3279   -0.0115    2.5963 H   0  0  0  0  0  0
   -0.1157    2.1151    3.0726 H   0  0  0  0  0  0
    1.2670    2.3061    4.1673 H   0  0  0  0  0  0
   -0.3616    2.5231    4.7842 H   0  0  0  0  0  0
    0.4088    1.0510    0.3755 C   0  0  0  0  0  0
    1.0192   -0.1998    0.2891 C   0  0  0  0  0  0
    0.2417   -1.3569    0.2967 C   0  0  0  0  0  0
   -1.1462   -1.2643    0.3939 C   0  0  0  0  0  0
   -1.7573   -0.0140    0.4830 C   0  0  0  0  0  0
   -0.9797    1.1442    0.4723 C   0  0  0  0  0  0
    1.0119    1.9485    0.3681 H   0  0  0  0  0  0
    2.0956   -0.2718    0.2172 H   0  0  0  0  0  0
    0.7152   -2.3266    0.2281 H   0  0  0  0  0  0
   -1.7492   -2.1619    0.3994 H   0  0  0  0  0  0
   -2.8335    0.0582    0.5590 H   0  0  0  0  0  0
   -1.4540    2.1140    0.5371 H   0  0  0  0  0  0
  1  2  1  0  0  0
  2  3  1  0  0  0
  3  4  2  0  0  0
  3  5  1  0  0  0
  1  6  1  0  0  0
  1  7  1  0  0  0
  1  8  1  0  0  0
  2  9  1  0  0  0
  5 10  1  0  0  0
  5 11  1  0  0  0
  5 12  1  0  0  0
 13 14  1  0  0  0
 14 15  2  0  0  0
 15 16  1  0  0  0
 16 17  2  0  0  0
 17 18  1  0  0  0
 13 18  2  0  0  0
 13 19  1  0  0  0
 14 20  1  0  0  0
 15 21  1  0  0  0
 16 22  1  0  0  0
 17 23  1  0  0  0
 18 24  1  0  0  0
M  END
$$$$
