


 16 14  0  0  1  0            999 V2000
   -2.5584    1.3426    0.2963 C   0  0  0  0  0  0
   -1.0617    1.2971    0.2921 C   0  0  0  0  0  0
   -0.3582    2.2705    0.5318 O   0  0  0  0  0  0
   -0.5893    0.0949    0.0038 O   0  0  0  0  0  0
   -2.8960    2.3475    0.5183 H   0  0  0  0  0  0
   -2.9329    1.0224   -0.6730 H   0  0  0  0  0  0
   -2.9372    0.6449    1.0396 H   0  0  0  0  0  0
    0.4044    0.1277    0.0184 H   0  0  0  0  0  0
    4.2963    1.0626    0.2693 C   0  0  0  0  0  0
    2.7996    1.1085    0.2713 C   0  0  0  0  0  0
    2.0959    0.1352    0.0315 O   0  0  0  0  0  0
    2.3271    2.3109    0.5590 O   0  0  0  0  0  0
    4.6339    0.0612    0.0318 H   0  0  0  0  0  0
    4.6778    1.7729   -0.4602 H   0  0  0  0  0  0
    4.6678    1.3653    1.2454 H   0  0  0  0  0  0
    1.3333    2.2780    0.5446 H   0  0  0  0  0  0
  1  2  1  0  0  0
  2  3  2  0  0  0
  2  4  1  0  0  0
  1  5  1  0  0  0
  1  6  1  0  0  0
  1  7  1  0  0  0
  4  8  1  0  0  0
  9 10  1  0  0  0
 10 11  2  0  0  0
 10 12  1  0  0  0
  9 13  1  0  0  0
  9 14  1  0  0  0
  9 15  1  0  0  0
 12 16  1  0  0  0
M  END
$$$$
