


 16 14  0  0  1  0            999 V2000
   -2.5584    1.3426    0.2963 C   0  0  0  0  0  0
   -1.0617    1.2971    0.2921 C   0  0  0  0  0  0
   -0.3582    2.2705    0.5318 O   0  0  0  0  0  0
   -0.5893    0.0949    0.0038 O   0  0  0  0  0  0
   -2.8960    2.3475    0.5183 H   0  0  0  0  0  0
   -2.9329    1.0224   -0.6730 H   0  0  0  0  0  0
   -2.9372    0.6449    1.0396 H   0  0  0  0  0  0
    0.4044    0.1277    0.0184 H   0  0  0  0  0  0
    5.1421    1.0663    0.2758 C   0  0  0  0  0  0
    3.6454    1.1122    0.2777 C   0  0  0  0  0  0
    2.9418    0.1389    0.0380 O   0  0  0  0  0  0
    3.1730    2.3146    0.5655 O   0  0  0  0  0  0
    5.4797    0.0650    0.0382 H   0  0  0  0  0  0
    5.5236    1.7767   -0.4537 H   0  0  0  0  0  0
    5.5136    1.3690    1.2518 H   0  0  0  0  0  0
    2.1792    2.2817    0.5511 H   0  0  0  0  0  0
  1  2  1  0  0  0
  2  3  2  0  0  0
  2  4  1  0  0  0
  1  5  1  0  0  0
  1  6  1  0  0  0
  1  7  1  0  0  0
  4  8  1  0  0  0
  9 10  1  0  0  0
 10 11  2  0  0  0
 10 12  1  0  0  0
  9 13  1  0  0  0
  9 14  1  0  0  0
  9 15  1  0  0  0
 12 16  1  0  0  0
M  END
$$$$
