


 16 14  0  0  1  0            999 V2000
   -2.5584    1.3426    0.2963 C   0  0  0  0  0  0
   -1.0617    1.2971    0.2921 C   0  0  0  0  0  0
   -0.3582    2.2705    0.5318 O   0  0  0  0  0  0
   -0.5893    0.0949    0.0038 O   0  0  0  0  0  0
   -2.8960    2.3475    0.5183 H   0  0  0  0  0  0
   -2.9329    1.0224   -0.6730 H   0  0  0  0  0  0
   -2.9372    0.6449    1.0396 H   0  0  0  0  0  0
    0.4044    0.1277    0.0184 H   0  0  0  0  0  0
    4.3809    1.0629    0.2700 C   0  0  0  0  0  0
    2.8842    1.1088    0.2719 C   0  0  0  0  0  0
    2.1806    0.1355    0.0321 O   0  0  0  0  0  0
    2.4118    2.3113    0.5597 O   0  0  0  0  0  0
    4.7185    0.0616    0.0324 H   0  0  0  0  0  0
    4.7625    1.7733   -0.4595 H   0  0  0  0  0  0
    4.7525    1.3656    1.2460 H   0  0  0  0  0  0
    1.4180    2.2784    0.5453 H   0  0  0  0  0  0
  1  2  1  0  0  0
  2  3  2  0  0  0
  2  4  1  0  0  0
  1  5  1  0  0  0
  1  6  1  0  0  0
  1  7  1  0  0  0
  4  8  1  0  0  0
  9 10  1  0  0  0
 10 11  2  0  0  0
 10 12  1  0  0  0
  9 13  1  0  0  0
  9 14  1  0  0  0
  9 15  1  0  0  0
 12 16  1  0  0  0
M  END
$$$$
