


 16 14  0  0  1  0            999 V2000
   -2.5584    1.3426    0.2963 C   0  0  0  0  0  0
   -1.0617    1.2971    0.2921 C   0  0  0  0  0  0
   -0.3582    2.2705    0.5318 O   0  0  0  0  0  0
   -0.5893    0.0949    0.0038 O   0  0  0  0  0  0
   -2.8960    2.3475    0.5183 H   0  0  0  0  0  0
   -2.9329    1.0224   -0.6730 H   0  0  0  0  0  0
   -2.9372    0.6449    1.0396 H   0  0  0  0  0  0
    0.4044    0.1277    0.0184 H   0  0  0  0  0  0
    4.7193    1.0644    0.2725 C   0  0  0  0  0  0
    3.2225    1.1103    0.2745 C   0  0  0  0  0  0
    2.5189    0.1370    0.0347 O   0  0  0  0  0  0
    2.7501    2.3128    0.5623 O   0  0  0  0  0  0
    5.0568    0.0631    0.0350 H   0  0  0  0  0  0
    5.1007    1.7748   -0.4569 H   0  0  0  0  0  0
    5.0908    1.3671    1.2486 H   0  0  0  0  0  0
    1.7563    2.2799    0.5479 H   0  0  0  0  0  0
  1  2  1  0  0  0
  2  3  2  0  0  0
  2  4  1  0  0  0
  1  5  1  0  0  0
  1  6  1  0  0  0
  1  7  1  0  0  0
  4  8  1  0  0  0
  9 10  1  0  0  0
 10 11  2  0  0  0
 10 12  1  0  0  0
  9 13  1  0  0  0
  9 14  1  0  0  0
  9 15  1  0  0  0
 12 16  1  0  0  0
M  END
$$$$
