


 16 14  0  0  1  0            999 V2000
   -2.5584    1.3426    0.2963 C   0  0  0  0  0  0
   -1.0617    1.2971    0.2921 C   0  0  0  0  0  0
   -0.3582    2.2705    0.5318 O   0  0  0  0  0  0
   -0.5893    0.0949    0.0038 O   0  0  0  0  0  0
   -2.8960    2.3475    0.5183 H   0  0  0  0  0  0
   -2.9329    1.0224   -0.6730 H   0  0  0  0  0  0
   -2.9372    0.6449    1.0396 H   0  0  0  0  0  0
    0.4044    0.1277    0.0184 H   0  0  0  0  0  0
    4.2118    1.0622    0.2686 C   0  0  0  0  0  0
    2.7151    1.1081    0.2706 C   0  0  0  0  0  0
    2.0115    0.1348    0.0308 O   0  0  0  0  0  0
    2.2427    2.3105    0.5584 O   0  0  0  0  0  0
    4.5494    0.0609    0.0311 H   0  0  0  0  0  0
    4.5933    1.7725   -0.4608 H   0  0  0  0  0  0
    4.5833    1.3649    1.2447 H   0  0  0  0  0  0
    1.2489    2.2776    0.5440 H   0  0  0  0  0  0
  1  2  1  0  0  0
  2  3  2  0  0  0
  2  4  1  0  0  0
  1  5  1  0  0  0
  1  6  1  0  0  0
  1  7  1  0  0  0
  4  8  1  0  0  0
  9 10  1  0  0  0
 10 11  2  0  0  0
 10 12  1  0  0  0
  9 13  1  0  0  0
  9 14  1  0  0  0
  9 15  1  0  0  0
 12 16  1  0  0  0
M  END
$$$$
