


 16 14  0  0  1  0            999 V2000
   -2.5584    1.3426    0.2963 C   0  0  0  0  0  0
   -1.0617    1.2971    0.2921 C   0  0  0  0  0  0
   -0.3582    2.2705    0.5318 O   0  0  0  0  0  0
   -0.5893    0.0949    0.0038 O   0  0  0  0  0  0
   -2.8960    2.3475    0.5183 H   0  0  0  0  0  0
   -2.9329    1.0224   -0.6730 H   0  0  0  0  0  0
   -2.9372    0.6449    1.0396 H   0  0  0  0  0  0
    0.4044    0.1277    0.0184 H   0  0  0  0  0  0
    5.9879    1.0701    0.2822 C   0  0  0  0  0  0
    4.4912    1.1159    0.2842 C   0  0  0  0  0  0
    3.7876    0.1426    0.0444 O   0  0  0  0  0  0
    4.0188    2.3184    0.5720 O   0  0  0  0  0  0
    6.3255    0.0687    0.0447 H   0  0  0  0  0  0
    6.3694    1.7804   -0.4472 H   0  0  0  0  0  0
    6.3594    1.3727    1.2583 H   0  0  0  0  0  0
    3.0250    2.2855    0.5576 H   0  0  0  0  0  0
  1  2  1  0  0  0
  2  3  2  0  0  0
  2  4  1  0  0  0
  1  5  1  0  0  0
  1  6  1  0  0  0
  1  7  1  0  0  0
  4  8  1  0  0  0
  9 10  1  0  0  0
 10 11  2  0  0  0
 10 12  1  0  0  0
  9 13  1  0  0  0
  9 14  1  0  0  0
  9 15  1  0  0  0
 12 16  1  0  0  0
M  END
$$$$
