


 16 14  0  0  1  0            999 V2000
   -2.5584    1.3426    0.2963 C   0  0  0  0  0  0
   -1.0617    1.2971    0.2921 C   0  0  0  0  0  0
   -0.3582    2.2705    0.5318 O   0  0  0  0  0  0
   -0.5893    0.0949    0.0038 O   0  0  0  0  0  0
   -2.8960    2.3475    0.5183 H   0  0  0  0  0  0
   -2.9329    1.0224   -0.6730 H   0  0  0  0  0  0
   -2.9372    0.6449    1.0396 H   0  0  0  0  0  0
    0.4044    0.1277    0.0184 H   0  0  0  0  0  0
    4.4655    1.0633    0.2706 C   0  0  0  0  0  0
    2.9688    1.1092    0.2726 C   0  0  0  0  0  0
    2.2652    0.1359    0.0328 O   0  0  0  0  0  0
    2.4964    2.3117    0.5603 O   0  0  0  0  0  0
    4.8031    0.0620    0.0331 H   0  0  0  0  0  0
    4.8470    1.7737   -0.4589 H   0  0  0  0  0  0
    4.8370    1.3660    1.2466 H   0  0  0  0  0  0
    1.5026    2.2787    0.5459 H   0  0  0  0  0  0
  1  2  1  0  0  0
  2  3  2  0  0  0
  2  4  1  0  0  0
  1  5  1  0  0  0
  1  6  1  0  0  0
  1  7  1  0  0  0
  4  8  1  0  0  0
  9 10  1  0  0  0
 10 11  2  0  0  0
 10 12  1  0  0  0
  9 13  1  0  0  0
  9 14  1  0  0  0
  9 15  1  0  0  0
 12 16  1  0  0  0
M  END
$$$$
