


 27 27  0  0  1  0            999 V2000
   -0.6212   -0.4752    7.2031 C   0  0  0  0  0  0
    0.8483   -0.7323    7.5472 C   0  0  0  0  0  0
    1.4885    0.6731    7.6382 C   0  0  0  0  0  0
    0.3094    1.6723    7.6651 C   0  0  0  0  0  0
   -0.9244    0.8152    7.9607 C   0  0  0  0  0  0
   -0.7275   -0.3003    6.1308 H   0  0  0  0  0  0
   -1.2729   -1.3045    7.4762 H   0  0  0  0  0  0
    1.3436   -1.3699    6.8166 H   0  0  0  0  0  0
    0.9116   -1.2325    8.5147 H   0  0  0  0  0  0
    2.1387    0.8658    6.7863 H   0  0  0  0  0  0
    2.1013    0.7623    8.5339 H   0  0  0  0  0  0
    0.1923    2.1313    6.6828 H   0  0  0  0  0  0
    0.4550    2.4738    8.3875 H   0  0  0  0  0  0
   -1.8553    1.2909    7.6548 H   0  0  0  0  0  0
   -0.9898    0.6059    9.0312 H   0  0  0  0  0  0
    0.7656    0.8682    0.8210 C   0  0  0  0  0  0
    1.2377   -0.4428    0.7939 C   0  0  0  0  0  0
    0.3722   -1.4885    0.4773 C   0  0  0  0  0  0
   -0.9649   -1.2230    0.1869 C   0  0  0  0  0  0
   -1.4371    0.0884    0.2133 C   0  0  0  0  0  0
   -0.5719    1.1340    0.5308 C   0  0  0  0  0  0
    1.4375    1.6800    1.0651 H   0  0  0  0  0  0
    2.2758   -0.6485    1.0177 H   0  0  0  0  0  0
    0.7382   -2.5061    0.4571 H   0  0  0  0  0  0
   -1.6365   -2.0346   -0.0578 H   0  0  0  0  0  0
   -2.4747    0.2943   -0.0115 H   0  0  0  0  0  0
   -0.9377    2.1517    0.5511 H   0  0  0  0  0  0
  1  2  1  0  0  0
  2  3  1  0  0  0
  3  4  1  0  0  0
  4  5  1  0  0  0
  1  5  1  0  0  0
  1  6  1  0  0  0
  1  7  1  0  0  0
  2  8  1  0  0  0
  2  9  1  0  0  0
  3 10  1  0  0  0
  3 11  1  0  0  0
  4 12  1  0  0  0
  4 13  1  0  0  0
  5 14  1  0  0  0
  5 15  1  0  0  0
 16 17  1  0  0  0
 17 18  2  0  0  0
 18 19  1  0  0  0
 19 20  2  0  0  0
 20 21  1  0  0  0
 16 21  2  0  0  0
 16 22  1  0  0  0
 17 23  1  0  0  0
 18 24  1  0  0  0
 19 25  1  0  0  0
 20 26  1  0  0  0
 21 27  1  0  0  0
M  END
$$$$
