


 27 27  0  0  1  0            999 V2000
   -0.7286   -0.6652    4.8288 C   0  0  0  0  0  0
    0.7409   -0.9223    5.1730 C   0  0  0  0  0  0
    1.3810    0.4831    5.2639 C   0  0  0  0  0  0
    0.2020    1.4823    5.2908 C   0  0  0  0  0  0
   -1.0318    0.6252    5.5864 C   0  0  0  0  0  0
   -0.8349   -0.4903    3.7565 H   0  0  0  0  0  0
   -1.3803   -1.4945    5.1020 H   0  0  0  0  0  0
    1.2361   -1.5599    4.4424 H   0  0  0  0  0  0
    0.8042   -1.4225    6.1404 H   0  0  0  0  0  0
    2.0313    0.6758    4.4121 H   0  0  0  0  0  0
    1.9939    0.5723    6.1596 H   0  0  0  0  0  0
    0.0848    1.9412    4.3085 H   0  0  0  0  0  0
    0.3476    2.2838    6.0132 H   0  0  0  0  0  0
   -1.9628    1.1009    5.2805 H   0  0  0  0  0  0
   -1.0972    0.4159    6.6570 H   0  0  0  0  0  0
    0.7656    0.8682    0.8210 C   0  0  0  0  0  0
    1.2377   -0.4428    0.7939 C   0  0  0  0  0  0
    0.3722   -1.4885    0.4773 C   0  0  0  0  0  0
   -0.9649   -1.2230    0.1869 C   0  0  0  0  0  0
   -1.4371    0.0884    0.2133 C   0  0  0  0  0  0
   -0.5719    1.1340    0.5308 C   0  0  0  0  0  0
    1.4375    1.6800    1.0651 H   0  0  0  0  0  0
    2.2758   -0.6485    1.0177 H   0  0  0  0  0  0
    0.7382   -2.5061    0.4571 H   0  0  0  0  0  0
   -1.6365   -2.0346   -0.0578 H   0  0  0  0  0  0
   -2.4747    0.2943   -0.0115 H   0  0  0  0  0  0
   -0.9377    2.1517    0.5511 H   0  0  0  0  0  0
  1  2  1  0  0  0
  2  3  1  0  0  0
  3  4  1  0  0  0
  4  5  1  0  0  0
  1  5  1  0  0  0
  1  6  1  0  0  0
  1  7  1  0  0  0
  2  8  1  0  0  0
  2  9  1  0  0  0
  3 10  1  0  0  0
  3 11  1  0  0  0
  4 12  1  0  0  0
  4 13  1  0  0  0
  5 14  1  0  0  0
  5 15  1  0  0  0
 16 17  1  0  0  0
 17 18  2  0  0  0
 18 19  1  0  0  0
 19 20  2  0  0  0
 20 21  1  0  0  0
 16 21  2  0  0  0
 16 22  1  0  0  0
 17 23  1  0  0  0
 18 24  1  0  0  0
 19 25  1  0  0  0
 20 26  1  0  0  0
 21 27  1  0  0  0
M  END
$$$$
