


 27 27  0  0  1  0            999 V2000
   -0.7792   -0.7546    3.7122 C   0  0  0  0  0  0
    0.6904   -1.0117    4.0563 C   0  0  0  0  0  0
    1.3305    0.3937    4.1473 C   0  0  0  0  0  0
    0.1514    1.3929    4.1741 C   0  0  0  0  0  0
   -1.0823    0.5358    4.4698 C   0  0  0  0  0  0
   -0.8854   -0.5796    2.6399 H   0  0  0  0  0  0
   -1.4308   -1.5839    3.9853 H   0  0  0  0  0  0
    1.1856   -1.6492    3.3257 H   0  0  0  0  0  0
    0.7536   -1.5119    5.0238 H   0  0  0  0  0  0
    1.9808    0.5864    3.2954 H   0  0  0  0  0  0
    1.9434    0.4829    5.0430 H   0  0  0  0  0  0
    0.0343    1.8519    3.1919 H   0  0  0  0  0  0
    0.2970    2.1944    4.8966 H   0  0  0  0  0  0
   -2.0133    1.0116    4.1639 H   0  0  0  0  0  0
   -1.1478    0.3265    5.5403 H   0  0  0  0  0  0
    0.7656    0.8682    0.8210 C   0  0  0  0  0  0
    1.2377   -0.4428    0.7939 C   0  0  0  0  0  0
    0.3722   -1.4885    0.4773 C   0  0  0  0  0  0
   -0.9649   -1.2230    0.1869 C   0  0  0  0  0  0
   -1.4371    0.0884    0.2133 C   0  0  0  0  0  0
   -0.5719    1.1340    0.5308 C   0  0  0  0  0  0
    1.4375    1.6800    1.0651 H   0  0  0  0  0  0
    2.2758   -0.6485    1.0177 H   0  0  0  0  0  0
    0.7382   -2.5061    0.4571 H   0  0  0  0  0  0
   -1.6365   -2.0346   -0.0578 H   0  0  0  0  0  0
   -2.4747    0.2943   -0.0115 H   0  0  0  0  0  0
   -0.9377    2.1517    0.5511 H   0  0  0  0  0  0
  1  2  1  0  0  0
  2  3  1  0  0  0
  3  4  1  0  0  0
  4  5  1  0  0  0
  1  5  1  0  0  0
  1  6  1  0  0  0
  1  7  1  0  0  0
  2  8  1  0  0  0
  2  9  1  0  0  0
  3 10  1  0  0  0
  3 11  1  0  0  0
  4 12  1  0  0  0
  4 13  1  0  0  0
  5 14  1  0  0  0
  5 15  1  0  0  0
 16 17  1  0  0  0
 17 18  2  0  0  0
 18 19  1  0  0  0
 19 20  2  0  0  0
 20 21  1  0  0  0
 16 21  2  0  0  0
 16 22  1  0  0  0
 17 23  1  0  0  0
 18 24  1  0  0  0
 19 25  1  0  0  0
 20 26  1  0  0  0
 21 27  1  0  0  0
M  END
$$$$
