


 27 27  0  0  1  0            999 V2000
   -0.7721   -0.7420    3.8695 C   0  0  0  0  0  0
    0.6975   -0.9991    4.2137 C   0  0  0  0  0  0
    1.3376    0.4063    4.3046 C   0  0  0  0  0  0
    0.1586    1.4055    4.3315 C   0  0  0  0  0  0
   -1.0752    0.5484    4.6272 C   0  0  0  0  0  0
   -0.8783   -0.5670    2.7972 H   0  0  0  0  0  0
   -1.4237   -1.5713    4.1427 H   0  0  0  0  0  0
    1.1927   -1.6366    3.4831 H   0  0  0  0  0  0
    0.7608   -1.4993    5.1811 H   0  0  0  0  0  0
    1.9879    0.5990    3.4528 H   0  0  0  0  0  0
    1.9505    0.4955    5.2003 H   0  0  0  0  0  0
    0.0414    1.8645    3.3492 H   0  0  0  0  0  0
    0.3042    2.2070    5.0539 H   0  0  0  0  0  0
   -2.0062    1.0242    4.3212 H   0  0  0  0  0  0
   -1.1406    0.3391    5.6977 H   0  0  0  0  0  0
    0.7656    0.8682    0.8210 C   0  0  0  0  0  0
    1.2377   -0.4428    0.7939 C   0  0  0  0  0  0
    0.3722   -1.4885    0.4773 C   0  0  0  0  0  0
   -0.9649   -1.2230    0.1869 C   0  0  0  0  0  0
   -1.4371    0.0884    0.2133 C   0  0  0  0  0  0
   -0.5719    1.1340    0.5308 C   0  0  0  0  0  0
    1.4375    1.6800    1.0651 H   0  0  0  0  0  0
    2.2758   -0.6485    1.0177 H   0  0  0  0  0  0
    0.7382   -2.5061    0.4571 H   0  0  0  0  0  0
   -1.6365   -2.0346   -0.0578 H   0  0  0  0  0  0
   -2.4747    0.2943   -0.0115 H   0  0  0  0  0  0
   -0.9377    2.1517    0.5511 H   0  0  0  0  0  0
  1  2  1  0  0  0
  2  3  1  0  0  0
  3  4  1  0  0  0
  4  5  1  0  0  0
  1  5  1  0  0  0
  1  6  1  0  0  0
  1  7  1  0  0  0
  2  8  1  0  0  0
  2  9  1  0  0  0
  3 10  1  0  0  0
  3 11  1  0  0  0
  4 12  1  0  0  0
  4 13  1  0  0  0
  5 14  1  0  0  0
  5 15  1  0  0  0
 16 17  1  0  0  0
 17 18  2  0  0  0
 18 19  1  0  0  0
 19 20  2  0  0  0
 20 21  1  0  0  0
 16 21  2  0  0  0
 16 22  1  0  0  0
 17 23  1  0  0  0
 18 24  1  0  0  0
 19 25  1  0  0  0
 20 26  1  0  0  0
 21 27  1  0  0  0
M  END
$$$$
