


 27 27  0  0  1  0            999 V2000
   -0.7573   -0.7160    4.1949 C   0  0  0  0  0  0
    0.7122   -0.9730    4.5391 C   0  0  0  0  0  0
    1.3523    0.4324    4.6300 C   0  0  0  0  0  0
    0.1733    1.4316    4.6569 C   0  0  0  0  0  0
   -1.0605    0.5745    4.9525 C   0  0  0  0  0  0
   -0.8636   -0.5410    3.1226 H   0  0  0  0  0  0
   -1.4090   -1.5452    4.4681 H   0  0  0  0  0  0
    1.2074   -1.6106    3.8085 H   0  0  0  0  0  0
    0.7755   -1.4732    5.5065 H   0  0  0  0  0  0
    2.0026    0.6250    3.7782 H   0  0  0  0  0  0
    1.9652    0.5215    5.5257 H   0  0  0  0  0  0
    0.0561    1.8905    3.6746 H   0  0  0  0  0  0
    0.3189    2.2331    5.3793 H   0  0  0  0  0  0
   -1.9915    1.0502    4.6466 H   0  0  0  0  0  0
   -1.1259    0.3651    6.0231 H   0  0  0  0  0  0
    0.7656    0.8682    0.8210 C   0  0  0  0  0  0
    1.2377   -0.4428    0.7939 C   0  0  0  0  0  0
    0.3722   -1.4885    0.4773 C   0  0  0  0  0  0
   -0.9649   -1.2230    0.1869 C   0  0  0  0  0  0
   -1.4371    0.0884    0.2133 C   0  0  0  0  0  0
   -0.5719    1.1340    0.5308 C   0  0  0  0  0  0
    1.4375    1.6800    1.0651 H   0  0  0  0  0  0
    2.2758   -0.6485    1.0177 H   0  0  0  0  0  0
    0.7382   -2.5061    0.4571 H   0  0  0  0  0  0
   -1.6365   -2.0346   -0.0578 H   0  0  0  0  0  0
   -2.4747    0.2943   -0.0115 H   0  0  0  0  0  0
   -0.9377    2.1517    0.5511 H   0  0  0  0  0  0
  1  2  1  0  0  0
  2  3  1  0  0  0
  3  4  1  0  0  0
  4  5  1  0  0  0
  1  5  1  0  0  0
  1  6  1  0  0  0
  1  7  1  0  0  0
  2  8  1  0  0  0
  2  9  1  0  0  0
  3 10  1  0  0  0
  3 11  1  0  0  0
  4 12  1  0  0  0
  4 13  1  0  0  0
  5 14  1  0  0  0
  5 15  1  0  0  0
 16 17  1  0  0  0
 17 18  2  0  0  0
 18 19  1  0  0  0
 19 20  2  0  0  0
 20 21  1  0  0  0
 16 21  2  0  0  0
 16 22  1  0  0  0
 17 23  1  0  0  0
 18 24  1  0  0  0
 19 25  1  0  0  0
 20 26  1  0  0  0
 21 27  1  0  0  0
M  END
$$$$
