


 27 27  0  0  1  0            999 V2000
   -0.6937   -0.6034    5.6013 C   0  0  0  0  0  0
    0.7758   -0.8605    5.9454 C   0  0  0  0  0  0
    1.4160    0.5449    6.0363 C   0  0  0  0  0  0
    0.2369    1.5441    6.0632 C   0  0  0  0  0  0
   -0.9968    0.6870    6.3589 C   0  0  0  0  0  0
   -0.8000   -0.4285    4.5289 H   0  0  0  0  0  0
   -1.3453   -1.4327    5.8744 H   0  0  0  0  0  0
    1.2711   -1.4981    5.2148 H   0  0  0  0  0  0
    0.8391   -1.3607    6.9128 H   0  0  0  0  0  0
    2.0663    0.7376    5.1845 H   0  0  0  0  0  0
    2.0288    0.6341    6.9321 H   0  0  0  0  0  0
    0.1198    2.0031    5.0809 H   0  0  0  0  0  0
    0.3825    2.3456    6.7856 H   0  0  0  0  0  0
   -1.9278    1.1627    6.0529 H   0  0  0  0  0  0
   -1.0623    0.4777    7.4294 H   0  0  0  0  0  0
    0.7656    0.8682    0.8210 C   0  0  0  0  0  0
    1.2377   -0.4428    0.7939 C   0  0  0  0  0  0
    0.3722   -1.4885    0.4773 C   0  0  0  0  0  0
   -0.9649   -1.2230    0.1869 C   0  0  0  0  0  0
   -1.4371    0.0884    0.2133 C   0  0  0  0  0  0
   -0.5719    1.1340    0.5308 C   0  0  0  0  0  0
    1.4375    1.6800    1.0651 H   0  0  0  0  0  0
    2.2758   -0.6485    1.0177 H   0  0  0  0  0  0
    0.7382   -2.5061    0.4571 H   0  0  0  0  0  0
   -1.6365   -2.0346   -0.0578 H   0  0  0  0  0  0
   -2.4747    0.2943   -0.0115 H   0  0  0  0  0  0
   -0.9377    2.1517    0.5511 H   0  0  0  0  0  0
  1  2  1  0  0  0
  2  3  1  0  0  0
  3  4  1  0  0  0
  4  5  1  0  0  0
  1  5  1  0  0  0
  1  6  1  0  0  0
  1  7  1  0  0  0
  2  8  1  0  0  0
  2  9  1  0  0  0
  3 10  1  0  0  0
  3 11  1  0  0  0
  4 12  1  0  0  0
  4 13  1  0  0  0
  5 14  1  0  0  0
  5 15  1  0  0  0
 16 17  1  0  0  0
 17 18  2  0  0  0
 18 19  1  0  0  0
 19 20  2  0  0  0
 20 21  1  0  0  0
 16 21  2  0  0  0
 16 22  1  0  0  0
 17 23  1  0  0  0
 18 24  1  0  0  0
 19 25  1  0  0  0
 20 26  1  0  0  0
 21 27  1  0  0  0
M  END
$$$$
