


 27 27  0  0  1  0            999 V2000
   -0.7500   -0.7030    4.3564 C   0  0  0  0  0  0
    0.7195   -0.9601    4.7006 C   0  0  0  0  0  0
    1.3597    0.4453    4.7915 C   0  0  0  0  0  0
    0.1806    1.4445    4.8184 C   0  0  0  0  0  0
   -1.0532    0.5874    5.1140 C   0  0  0  0  0  0
   -0.8563   -0.5281    3.2841 H   0  0  0  0  0  0
   -1.4017   -1.5323    4.6296 H   0  0  0  0  0  0
    1.2147   -1.5977    3.9700 H   0  0  0  0  0  0
    0.7828   -1.4603    5.6680 H   0  0  0  0  0  0
    2.0099    0.6380    3.9397 H   0  0  0  0  0  0
    1.9725    0.5345    5.6872 H   0  0  0  0  0  0
    0.0635    1.9034    3.8361 H   0  0  0  0  0  0
    0.3262    2.2460    5.5408 H   0  0  0  0  0  0
   -1.9842    1.0631    4.8081 H   0  0  0  0  0  0
   -1.1186    0.3781    6.1846 H   0  0  0  0  0  0
    0.7656    0.8682    0.8210 C   0  0  0  0  0  0
    1.2377   -0.4428    0.7939 C   0  0  0  0  0  0
    0.3722   -1.4885    0.4773 C   0  0  0  0  0  0
   -0.9649   -1.2230    0.1869 C   0  0  0  0  0  0
   -1.4371    0.0884    0.2133 C   0  0  0  0  0  0
   -0.5719    1.1340    0.5308 C   0  0  0  0  0  0
    1.4375    1.6800    1.0651 H   0  0  0  0  0  0
    2.2758   -0.6485    1.0177 H   0  0  0  0  0  0
    0.7382   -2.5061    0.4571 H   0  0  0  0  0  0
   -1.6365   -2.0346   -0.0578 H   0  0  0  0  0  0
   -2.4747    0.2943   -0.0115 H   0  0  0  0  0  0
   -0.9377    2.1517    0.5511 H   0  0  0  0  0  0
  1  2  1  0  0  0
  2  3  1  0  0  0
  3  4  1  0  0  0
  4  5  1  0  0  0
  1  5  1  0  0  0
  1  6  1  0  0  0
  1  7  1  0  0  0
  2  8  1  0  0  0
  2  9  1  0  0  0
  3 10  1  0  0  0
  3 11  1  0  0  0
  4 12  1  0  0  0
  4 13  1  0  0  0
  5 14  1  0  0  0
  5 15  1  0  0  0
 16 17  1  0  0  0
 17 18  2  0  0  0
 18 19  1  0  0  0
 19 20  2  0  0  0
 20 21  1  0  0  0
 16 21  2  0  0  0
 16 22  1  0  0  0
 17 23  1  0  0  0
 18 24  1  0  0  0
 19 25  1  0  0  0
 20 26  1  0  0  0
 21 27  1  0  0  0
M  END
$$$$
