


 17 16  0  0  1  0            999 V2000
   -0.9779   -1.2786    0.0012 C   0  0  0  0  0  0
   -0.6277    0.0875    0.0015 O   0  0  0  0  0  0
   -2.0634   -1.3420    0.0050 H   0  0  0  0  0  0
   -0.6149   -1.8064   -0.8854 H   0  0  0  0  0  0
   -0.6086   -1.8082    0.8842 H   0  0  0  0  0  0
    0.3436    0.1223   -0.0006 H   0  0  0  0  0  0
    4.3795   -0.0589   -1.1950 C   0  0  0  0  0  0
    5.0898   -0.0846    0.0006 C   0  0  0  0  0  0
    4.3776   -0.0596    1.1951 C   0  0  0  0  0  0
    2.9880   -0.0099    1.1442 C   0  0  0  0  0  0
    2.2935    0.0153   -0.0016 N   0  0  0  0  0  0
    2.9898   -0.0092   -1.1464 C   0  0  0  0  0  0
    4.8868   -0.0762   -2.1488 H   0  0  0  0  0  0
    6.1702   -0.1224    0.0014 H   0  0  0  0  0  0
    4.8834   -0.0774    2.1496 H   0  0  0  0  0  0
    2.4020    0.0128    2.0543 H   0  0  0  0  0  0
    2.4053    0.0141   -2.0573 H   0  0  0  0  0  0
  1  2  1  0  0  0
  1  3  1  0  0  0
  1  4  1  0  0  0
  1  5  1  0  0  0
  2  6  1  0  0  0
  7  8  1  0  0  0
  8  9  2  0  0  0
  9 10  1  0  0  0
 10 11  2  0  0  0
 11 12  1  0  0  0
  7 12  2  0  0  0
  7 13  1  0  0  0
  8 14  1  0  0  0
  9 15  1  0  0  0
 10 16  1  0  0  0
 12 17  1  0  0  0
M  END
$$$$
