


 17 16  0  0  1  0            999 V2000
   -0.9779   -1.2786    0.0012 C   0  0  0  0  0  0
   -0.6277    0.0875    0.0015 O   0  0  0  0  0  0
   -2.0634   -1.3420    0.0050 H   0  0  0  0  0  0
   -0.6149   -1.8064   -0.8854 H   0  0  0  0  0  0
   -0.6086   -1.8082    0.8842 H   0  0  0  0  0  0
    0.3436    0.1223   -0.0006 H   0  0  0  0  0  0
    4.8670   -0.0857   -1.1953 C   0  0  0  0  0  0
    5.5774   -0.1114    0.0003 C   0  0  0  0  0  0
    4.8651   -0.0864    1.1948 C   0  0  0  0  0  0
    3.4756   -0.0366    1.1439 C   0  0  0  0  0  0
    2.7810   -0.0115   -0.0019 N   0  0  0  0  0  0
    3.4774   -0.0359   -1.1466 C   0  0  0  0  0  0
    5.3744   -0.1030   -2.1491 H   0  0  0  0  0  0
    6.6577   -0.1491    0.0012 H   0  0  0  0  0  0
    5.3710   -0.1042    2.1493 H   0  0  0  0  0  0
    2.8896   -0.0139    2.0540 H   0  0  0  0  0  0
    2.8929   -0.0127   -2.0576 H   0  0  0  0  0  0
  1  2  1  0  0  0
  1  3  1  0  0  0
  1  4  1  0  0  0
  1  5  1  0  0  0
  2  6  1  0  0  0
  7  8  1  0  0  0
  8  9  2  0  0  0
  9 10  1  0  0  0
 10 11  2  0  0  0
 11 12  1  0  0  0
  7 12  2  0  0  0
  7 13  1  0  0  0
  8 14  1  0  0  0
  9 15  1  0  0  0
 10 16  1  0  0  0
 12 17  1  0  0  0
M  END
$$$$
