


 17 16  0  0  1  0            999 V2000
   -0.9779   -1.2786    0.0012 C   0  0  0  0  0  0
   -0.6277    0.0875    0.0015 O   0  0  0  0  0  0
   -2.0634   -1.3420    0.0050 H   0  0  0  0  0  0
   -0.6149   -1.8064   -0.8854 H   0  0  0  0  0  0
   -0.6086   -1.8082    0.8842 H   0  0  0  0  0  0
    0.3436    0.1223   -0.0006 H   0  0  0  0  0  0
    4.4771   -0.0643   -1.1951 C   0  0  0  0  0  0
    5.1874   -0.0900    0.0005 C   0  0  0  0  0  0
    4.4752   -0.0649    1.1951 C   0  0  0  0  0  0
    3.0856   -0.0152    1.1441 C   0  0  0  0  0  0
    2.3911    0.0099   -0.0017 N   0  0  0  0  0  0
    3.0874   -0.0145   -1.1464 C   0  0  0  0  0  0
    4.9844   -0.0816   -2.1489 H   0  0  0  0  0  0
    6.2678   -0.1277    0.0014 H   0  0  0  0  0  0
    4.9810   -0.0828    2.1495 H   0  0  0  0  0  0
    2.4996    0.0075    2.0542 H   0  0  0  0  0  0
    2.5029    0.0087   -2.0574 H   0  0  0  0  0  0
  1  2  1  0  0  0
  1  3  1  0  0  0
  1  4  1  0  0  0
  1  5  1  0  0  0
  2  6  1  0  0  0
  7  8  1  0  0  0
  8  9  2  0  0  0
  9 10  1  0  0  0
 10 11  2  0  0  0
 11 12  1  0  0  0
  7 12  2  0  0  0
  7 13  1  0  0  0
  8 14  1  0  0  0
  9 15  1  0  0  0
 10 16  1  0  0  0
 12 17  1  0  0  0
M  END
$$$$
