


 17 16  0  0  1  0            999 V2000
   -0.9779   -1.2786    0.0012 C   0  0  0  0  0  0
   -0.6277    0.0875    0.0015 O   0  0  0  0  0  0
   -2.0634   -1.3420    0.0050 H   0  0  0  0  0  0
   -0.6149   -1.8064   -0.8854 H   0  0  0  0  0  0
   -0.6086   -1.8082    0.8842 H   0  0  0  0  0  0
    0.3436    0.1223   -0.0006 H   0  0  0  0  0  0
    6.3294   -0.1659   -1.1961 C   0  0  0  0  0  0
    7.0398   -0.1917   -0.0005 C   0  0  0  0  0  0
    6.3275   -0.1666    1.1941 C   0  0  0  0  0  0
    4.9380   -0.1169    1.1431 C   0  0  0  0  0  0
    4.2434   -0.0918   -0.0027 N   0  0  0  0  0  0
    4.9398   -0.1162   -1.1474 C   0  0  0  0  0  0
    6.8368   -0.1832   -2.1499 H   0  0  0  0  0  0
    8.1201   -0.2294    0.0004 H   0  0  0  0  0  0
    6.8333   -0.1845    2.1486 H   0  0  0  0  0  0
    4.3520   -0.0942    2.0532 H   0  0  0  0  0  0
    4.3553   -0.0930   -2.0584 H   0  0  0  0  0  0
  1  2  1  0  0  0
  1  3  1  0  0  0
  1  4  1  0  0  0
  1  5  1  0  0  0
  2  6  1  0  0  0
  7  8  1  0  0  0
  8  9  2  0  0  0
  9 10  1  0  0  0
 10 11  2  0  0  0
 11 12  1  0  0  0
  7 12  2  0  0  0
  7 13  1  0  0  0
  8 14  1  0  0  0
  9 15  1  0  0  0
 10 16  1  0  0  0
 12 17  1  0  0  0
M  END
$$$$
