


 17 16  0  0  1  0            999 V2000
   -0.9779   -1.2786    0.0012 C   0  0  0  0  0  0
   -0.6277    0.0875    0.0015 O   0  0  0  0  0  0
   -2.0634   -1.3420    0.0050 H   0  0  0  0  0  0
   -0.6149   -1.8064   -0.8854 H   0  0  0  0  0  0
   -0.6086   -1.8082    0.8842 H   0  0  0  0  0  0
    0.3436    0.1223   -0.0006 H   0  0  0  0  0  0
    4.1846   -0.0482   -1.1949 C   0  0  0  0  0  0
    4.8949   -0.0739    0.0007 C   0  0  0  0  0  0
    4.1827   -0.0489    1.1952 C   0  0  0  0  0  0
    2.7931    0.0009    1.1443 C   0  0  0  0  0  0
    2.0986    0.0260   -0.0015 N   0  0  0  0  0  0
    2.7949    0.0015   -1.1463 C   0  0  0  0  0  0
    4.6919   -0.0655   -2.1487 H   0  0  0  0  0  0
    5.9753   -0.1117    0.0015 H   0  0  0  0  0  0
    4.6885   -0.0667    2.1497 H   0  0  0  0  0  0
    2.2071    0.0235    2.0544 H   0  0  0  0  0  0
    2.2105    0.0248   -2.0572 H   0  0  0  0  0  0
  1  2  1  0  0  0
  1  3  1  0  0  0
  1  4  1  0  0  0
  1  5  1  0  0  0
  2  6  1  0  0  0
  7  8  1  0  0  0
  8  9  2  0  0  0
  9 10  1  0  0  0
 10 11  2  0  0  0
 11 12  1  0  0  0
  7 12  2  0  0  0
  7 13  1  0  0  0
  8 14  1  0  0  0
  9 15  1  0  0  0
 10 16  1  0  0  0
 12 17  1  0  0  0
M  END
$$$$
