


 17 16  0  0  1  0            999 V2000
   -0.9779   -1.2786    0.0012 C   0  0  0  0  0  0
   -0.6277    0.0875    0.0015 O   0  0  0  0  0  0
   -2.0634   -1.3420    0.0050 H   0  0  0  0  0  0
   -0.6149   -1.8064   -0.8854 H   0  0  0  0  0  0
   -0.6086   -1.8082    0.8842 H   0  0  0  0  0  0
    0.3436    0.1223   -0.0006 H   0  0  0  0  0  0
    5.3545   -0.1124   -1.1956 C   0  0  0  0  0  0
    6.0649   -0.1381    0.0000 C   0  0  0  0  0  0
    5.3526   -0.1131    1.1946 C   0  0  0  0  0  0
    3.9631   -0.0634    1.1436 C   0  0  0  0  0  0
    3.2685   -0.0382   -0.0022 N   0  0  0  0  0  0
    3.9648   -0.0627   -1.1469 C   0  0  0  0  0  0
    5.8618   -0.1297   -2.1493 H   0  0  0  0  0  0
    7.1452   -0.1759    0.0009 H   0  0  0  0  0  0
    5.8584   -0.1309    2.1491 H   0  0  0  0  0  0
    3.3771   -0.0407    2.0538 H   0  0  0  0  0  0
    3.3804   -0.0395   -2.0578 H   0  0  0  0  0  0
  1  2  1  0  0  0
  1  3  1  0  0  0
  1  4  1  0  0  0
  1  5  1  0  0  0
  2  6  1  0  0  0
  7  8  1  0  0  0
  8  9  2  0  0  0
  9 10  1  0  0  0
 10 11  2  0  0  0
 11 12  1  0  0  0
  7 12  2  0  0  0
  7 13  1  0  0  0
  8 14  1  0  0  0
  9 15  1  0  0  0
 10 16  1  0  0  0
 12 17  1  0  0  0
M  END
$$$$
