


 17 16  0  0  1  0            999 V2000
   -0.9779   -1.2786    0.0012 C   0  0  0  0  0  0
   -0.6277    0.0875    0.0015 O   0  0  0  0  0  0
   -2.0634   -1.3420    0.0050 H   0  0  0  0  0  0
   -0.6149   -1.8064   -0.8854 H   0  0  0  0  0  0
   -0.6086   -1.8082    0.8842 H   0  0  0  0  0  0
    0.3436    0.1223   -0.0006 H   0  0  0  0  0  0
    4.5746   -0.0696   -1.1952 C   0  0  0  0  0  0
    5.2849   -0.0953    0.0005 C   0  0  0  0  0  0
    4.5727   -0.0703    1.1950 C   0  0  0  0  0  0
    3.1831   -0.0206    1.1441 C   0  0  0  0  0  0
    2.4885    0.0046   -0.0017 N   0  0  0  0  0  0
    3.1849   -0.0199   -1.1465 C   0  0  0  0  0  0
    5.0819   -0.0869   -2.1489 H   0  0  0  0  0  0
    6.3653   -0.1331    0.0013 H   0  0  0  0  0  0
    5.0785   -0.0881    2.1495 H   0  0  0  0  0  0
    2.5971    0.0021    2.0542 H   0  0  0  0  0  0
    2.6004    0.0033   -2.0574 H   0  0  0  0  0  0
  1  2  1  0  0  0
  1  3  1  0  0  0
  1  4  1  0  0  0
  1  5  1  0  0  0
  2  6  1  0  0  0
  7  8  1  0  0  0
  8  9  2  0  0  0
  9 10  1  0  0  0
 10 11  2  0  0  0
 11 12  1  0  0  0
  7 12  2  0  0  0
  7 13  1  0  0  0
  8 14  1  0  0  0
  9 15  1  0  0  0
 10 16  1  0  0  0
 12 17  1  0  0  0
M  END
$$$$
