


 17 16  0  0  1  0            999 V2000
   -0.9779   -1.2786    0.0012 C   0  0  0  0  0  0
   -0.6277    0.0875    0.0015 O   0  0  0  0  0  0
   -2.0634   -1.3420    0.0050 H   0  0  0  0  0  0
   -0.6149   -1.8064   -0.8854 H   0  0  0  0  0  0
   -0.6086   -1.8082    0.8842 H   0  0  0  0  0  0
    0.3436    0.1223   -0.0006 H   0  0  0  0  0  0
    4.2821   -0.0536   -1.1950 C   0  0  0  0  0  0
    4.9924   -0.0793    0.0006 C   0  0  0  0  0  0
    4.2802   -0.0542    1.1952 C   0  0  0  0  0  0
    2.8906   -0.0045    1.1442 C   0  0  0  0  0  0
    2.1961    0.0206   -0.0016 N   0  0  0  0  0  0
    2.8924   -0.0038   -1.1463 C   0  0  0  0  0  0
    4.7894   -0.0708   -2.1488 H   0  0  0  0  0  0
    6.0728   -0.1170    0.0015 H   0  0  0  0  0  0
    4.7860   -0.0721    2.1497 H   0  0  0  0  0  0
    2.3046    0.0182    2.0543 H   0  0  0  0  0  0
    2.3080    0.0194   -2.0573 H   0  0  0  0  0  0
  1  2  1  0  0  0
  1  3  1  0  0  0
  1  4  1  0  0  0
  1  5  1  0  0  0
  2  6  1  0  0  0
  7  8  1  0  0  0
  8  9  2  0  0  0
  9 10  1  0  0  0
 10 11  2  0  0  0
 11 12  1  0  0  0
  7 12  2  0  0  0
  7 13  1  0  0  0
  8 14  1  0  0  0
  9 15  1  0  0  0
 10 16  1  0  0  0
 12 17  1  0  0  0
M  END
$$$$
