


 25 23  0  0  1  0            999 V2000
    0.8952    0.1059    4.4533 C   0  0  0  0  0  0
   -0.5450   -0.3038    4.4361 C   0  0  0  0  0  0
   -0.9676   -1.4190    4.2389 O   0  0  0  0  0  0
   -1.3587    0.7552    4.6687 O   0  0  0  0  0  0
    1.5210   -0.7643    4.2951 H   0  0  0  0  0  0
    1.0713    0.8401    3.6702 H   0  0  0  0  0  0
    1.1325    0.5752    5.4051 H   0  0  0  0  0  0
   -2.2595    0.4008    4.6281 H   0  0  0  0  0  0
   -2.2753   -0.1351    0.8313 C   0  0  0  0  0  0
   -0.9617    0.6193    0.6694 C   0  0  0  0  0  0
    0.2265   -0.3147    0.4800 C   0  0  0  0  0  0
    1.5430    0.4212    0.2690 C   0  0  0  0  0  0
    2.7276   -0.5269    0.1375 C   0  0  0  0  0  0
   -2.4907   -0.7279   -0.0576 H   0  0  0  0  0  0
   -2.2263   -0.8184    1.6788 H   0  0  0  0  0  0
   -3.1120    0.5449    0.9874 H   0  0  0  0  0  0
   -0.7887    1.2504    1.5447 H   0  0  0  0  0  0
   -1.0262    1.2954   -0.1865 H   0  0  0  0  0  0
    0.3094   -0.9751    1.3480 H   0  0  0  0  0  0
    0.0391   -0.9660   -0.3788 H   0  0  0  0  0  0
    1.7116    1.1078    1.1025 H   0  0  0  0  0  0
    1.4661    1.0437   -0.6253 H   0  0  0  0  0  0
    2.5887   -1.2032   -0.7058 H   0  0  0  0  0  0
    3.6615    0.0117   -0.0160 H   0  0  0  0  0  0
    2.8352   -1.1374    1.0341 H   0  0  0  0  0  0
  1  2  1  0  0  0
  2  3  2  0  0  0
  2  4  1  0  0  0
  1  5  1  0  0  0
  1  6  1  0  0  0
  1  7  1  0  0  0
  4  8  1  0  0  0
  9 10  1  0  0  0
 10 11  1  0  0  0
 11 12  1  0  0  0
 12 13  1  0  0  0
  9 14  1  0  0  0
  9 15  1  0  0  0
  9 16  1  0  0  0
 10 17  1  0  0  0
 10 18  1  0  0  0
 11 19  1  0  0  0
 11 20  1  0  0  0
 12 21  1  0  0  0
 12 22  1  0  0  0
 13 23  1  0  0  0
 13 24  1  0  0  0
 13 25  1  0  0  0
M  END
$$$$
