


 25 23  0  0  1  0            999 V2000
    0.4110   -0.0198    6.9330 C   0  0  0  0  0  0
   -1.0293   -0.4294    6.9158 C   0  0  0  0  0  0
   -1.4519   -1.5446    6.7186 O   0  0  0  0  0  0
   -1.8430    0.6295    7.1483 O   0  0  0  0  0  0
    1.0368   -0.8899    6.7748 H   0  0  0  0  0  0
    0.5870    0.7145    6.1498 H   0  0  0  0  0  0
    0.6483    0.4495    7.8847 H   0  0  0  0  0  0
   -2.7437    0.2752    7.1078 H   0  0  0  0  0  0
   -2.2753   -0.1351    0.8313 C   0  0  0  0  0  0
   -0.9617    0.6193    0.6694 C   0  0  0  0  0  0
    0.2265   -0.3147    0.4800 C   0  0  0  0  0  0
    1.5430    0.4212    0.2690 C   0  0  0  0  0  0
    2.7276   -0.5269    0.1375 C   0  0  0  0  0  0
   -2.4907   -0.7279   -0.0576 H   0  0  0  0  0  0
   -2.2263   -0.8184    1.6788 H   0  0  0  0  0  0
   -3.1120    0.5449    0.9874 H   0  0  0  0  0  0
   -0.7887    1.2504    1.5447 H   0  0  0  0  0  0
   -1.0262    1.2954   -0.1865 H   0  0  0  0  0  0
    0.3094   -0.9751    1.3480 H   0  0  0  0  0  0
    0.0391   -0.9660   -0.3788 H   0  0  0  0  0  0
    1.7116    1.1078    1.1025 H   0  0  0  0  0  0
    1.4661    1.0437   -0.6253 H   0  0  0  0  0  0
    2.5887   -1.2032   -0.7058 H   0  0  0  0  0  0
    3.6615    0.0117   -0.0160 H   0  0  0  0  0  0
    2.8352   -1.1374    1.0341 H   0  0  0  0  0  0
  1  2  1  0  0  0
  2  3  2  0  0  0
  2  4  1  0  0  0
  1  5  1  0  0  0
  1  6  1  0  0  0
  1  7  1  0  0  0
  4  8  1  0  0  0
  9 10  1  0  0  0
 10 11  1  0  0  0
 11 12  1  0  0  0
 12 13  1  0  0  0
  9 14  1  0  0  0
  9 15  1  0  0  0
  9 16  1  0  0  0
 10 17  1  0  0  0
 10 18  1  0  0  0
 11 19  1  0  0  0
 11 20  1  0  0  0
 12 21  1  0  0  0
 12 22  1  0  0  0
 13 23  1  0  0  0
 13 24  1  0  0  0
 13 25  1  0  0  0
M  END
$$$$
