


 25 23  0  0  1  0            999 V2000
    0.9184    0.1119    4.3344 C   0  0  0  0  0  0
   -0.5218   -0.2978    4.3172 C   0  0  0  0  0  0
   -0.9445   -1.4130    4.1201 O   0  0  0  0  0  0
   -1.3355    0.7612    4.5498 O   0  0  0  0  0  0
    1.5443   -0.7583    4.1763 H   0  0  0  0  0  0
    1.0945    0.8461    3.5513 H   0  0  0  0  0  0
    1.1557    0.5812    5.2863 H   0  0  0  0  0  0
   -2.2363    0.4068    4.5093 H   0  0  0  0  0  0
   -2.2753   -0.1351    0.8313 C   0  0  0  0  0  0
   -0.9617    0.6193    0.6694 C   0  0  0  0  0  0
    0.2265   -0.3147    0.4800 C   0  0  0  0  0  0
    1.5430    0.4212    0.2690 C   0  0  0  0  0  0
    2.7276   -0.5269    0.1375 C   0  0  0  0  0  0
   -2.4907   -0.7279   -0.0576 H   0  0  0  0  0  0
   -2.2263   -0.8184    1.6788 H   0  0  0  0  0  0
   -3.1120    0.5449    0.9874 H   0  0  0  0  0  0
   -0.7887    1.2504    1.5447 H   0  0  0  0  0  0
   -1.0262    1.2954   -0.1865 H   0  0  0  0  0  0
    0.3094   -0.9751    1.3480 H   0  0  0  0  0  0
    0.0391   -0.9660   -0.3788 H   0  0  0  0  0  0
    1.7116    1.1078    1.1025 H   0  0  0  0  0  0
    1.4661    1.0437   -0.6253 H   0  0  0  0  0  0
    2.5887   -1.2032   -0.7058 H   0  0  0  0  0  0
    3.6615    0.0117   -0.0160 H   0  0  0  0  0  0
    2.8352   -1.1374    1.0341 H   0  0  0  0  0  0
  1  2  1  0  0  0
  2  3  2  0  0  0
  2  4  1  0  0  0
  1  5  1  0  0  0
  1  6  1  0  0  0
  1  7  1  0  0  0
  4  8  1  0  0  0
  9 10  1  0  0  0
 10 11  1  0  0  0
 11 12  1  0  0  0
 12 13  1  0  0  0
  9 14  1  0  0  0
  9 15  1  0  0  0
  9 16  1  0  0  0
 10 17  1  0  0  0
 10 18  1  0  0  0
 11 19  1  0  0  0
 11 20  1  0  0  0
 12 21  1  0  0  0
 12 22  1  0  0  0
 13 23  1  0  0  0
 13 24  1  0  0  0
 13 25  1  0  0  0
M  END
$$$$
