


 15 14  0  0  1  0            999 V2000
    0.7810   -0.0132    7.7900 C   0  0  0  0  0  0
    0.6489   -0.0138    6.5837 C   0  0  0  0  0  0
    0.8964   -0.0126    8.8450 H   0  0  0  0  0  0
    0.5307   -0.0135    5.5192 H   0  0  0  0  0  0
   -0.4468   -1.1918   -1.0045 C   0  0  0  0  0  0
   -0.5747    0.0034   -1.7043 C   0  0  0  0  0  0
   -0.4535    1.1972   -1.0009 C   0  0  0  0  0  0
   -0.2093    1.1445    0.3684 C   0  0  0  0  0  0
   -0.0830    0.0007    1.0552 N   0  0  0  0  0  0
   -0.2028   -1.1417    0.3649 C   0  0  0  0  0  0
   -0.5336   -2.1459   -1.5042 H   0  0  0  0  0  0
   -0.7637    0.0045   -2.7687 H   0  0  0  0  0  0
   -0.5456    2.1523   -1.4978 H   0  0  0  0  0  0
   -0.1102    2.0567    0.9436 H   0  0  0  0  0  0
   -0.0985   -2.0551    0.9374 H   0  0  0  0  0  0
  1  2  3  0  0  0
  1  3  1  0  0  0
  2  4  1  0  0  0
  5  6  1  0  0  0
  6  7  2  0  0  0
  7  8  1  0  0  0
  8  9  2  0  0  0
  9 10  1  0  0  0
  5 10  2  0  0  0
  5 11  1  0  0  0
  6 12  1  0  0  0
  7 13  1  0  0  0
  8 14  1  0  0  0
 10 15  1  0  0  0
M  END
$$$$
