


 16 15  0  0  1  0            999 V2000
    0.0060    0.0784    3.9172 C   0  0  0  0  0  0
    0.0097    0.0980    5.1296 C   0  0  0  0  0  0
    0.0030    0.0608    2.8531 H   0  0  0  0  0  0
    0.0128    0.1151    6.1908 H   0  0  0  0  0  0
    0.8366    1.1149    0.2310 C   0  0  0  0  0  0
    1.3842   -0.1670    0.2601 C   0  0  0  0  0  0
    0.5475   -1.2818    0.2869 C   0  0  0  0  0  0
   -0.8367   -1.1150    0.2846 C   0  0  0  0  0  0
   -1.3842    0.1669    0.2556 C   0  0  0  0  0  0
   -0.5475    1.2817    0.2290 C   0  0  0  0  0  0
    1.4855    1.9797    0.2147 H   0  0  0  0  0  0
    2.4577   -0.2963    0.2661 H   0  0  0  0  0  0
    0.9719   -2.2760    0.3139 H   0  0  0  0  0  0
   -1.4856   -1.9796    0.3097 H   0  0  0  0  0  0
   -2.4576    0.2965    0.2585 H   0  0  0  0  0  0
   -0.9721    2.2760    0.2112 H   0  0  0  0  0  0
  1  2  3  0  0  0
  1  3  1  0  0  0
  2  4  1  0  0  0
  5  6  1  0  0  0
  6  7  2  0  0  0
  7  8  1  0  0  0
  8  9  2  0  0  0
  9 10  1  0  0  0
  5 10  2  0  0  0
  5 11  1  0  0  0
  6 12  1  0  0  0
  7 13  1  0  0  0
  8 14  1  0  0  0
  9 15  1  0  0  0
 10 16  1  0  0  0
M  END
$$$$
