


  8  6  0  0  1  0            999 V2000
   -0.6017   -0.0286    0.3849 C   0  0  0  0  0  0
    0.6101   -0.0287    0.3882 C   0  0  0  0  0  0
   -1.6637   -0.0285    0.3790 H   0  0  0  0  0  0
    1.6721   -0.0288    0.3880 H   0  0  0  0  0  0
   -0.0078    0.1061    4.3057 C   0  0  0  0  0  0
   -0.0118    0.1444    5.5172 C   0  0  0  0  0  0
   -0.0045    0.0724    3.2424 H   0  0  0  0  0  0
   -0.0151    0.1778    6.5781 H   0  0  0  0  0  0
  1  2  3  0  0  0
  1  3  1  0  0  0
  2  4  1  0  0  0
  5  6  3  0  0  0
  5  7  1  0  0  0
  6  8  1  0  0  0
M  END
$$$$
