


  8  6  0  0  1  0            999 V2000
   -0.6017   -0.0286    0.3849 C   0  0  0  0  0  0
    0.6101   -0.0287    0.3882 C   0  0  0  0  0  0
   -1.6637   -0.0285    0.3790 H   0  0  0  0  0  0
    1.6721   -0.0288    0.3880 H   0  0  0  0  0  0
   -0.0066    0.0910    3.8778 C   0  0  0  0  0  0
   -0.0105    0.1293    5.0893 C   0  0  0  0  0  0
   -0.0032    0.0572    2.8145 H   0  0  0  0  0  0
   -0.0138    0.1626    6.1502 H   0  0  0  0  0  0
  1  2  3  0  0  0
  1  3  1  0  0  0
  2  4  1  0  0  0
  5  6  3  0  0  0
  5  7  1  0  0  0
  6  8  1  0  0  0
M  END
$$$$
