


  8  6  0  0  1  0            999 V2000
   -0.6017   -0.0286    0.3849 C   0  0  0  0  0  0
    0.6101   -0.0287    0.3882 C   0  0  0  0  0  0
   -1.6637   -0.0285    0.3790 H   0  0  0  0  0  0
    1.6721   -0.0288    0.3880 H   0  0  0  0  0  0
   -0.0070    0.0960    4.0209 C   0  0  0  0  0  0
   -0.0109    0.1343    5.2323 C   0  0  0  0  0  0
   -0.0036    0.0623    2.9576 H   0  0  0  0  0  0
   -0.0142    0.1677    6.2932 H   0  0  0  0  0  0
  1  2  3  0  0  0
  1  3  1  0  0  0
  2  4  1  0  0  0
  5  6  3  0  0  0
  5  7  1  0  0  0
  6  8  1  0  0  0
M  END
$$$$
