


 26 24  0  0  1  0            999 V2000
   -1.2466   -0.5347    4.4475 C   0  0  0  0  0  0
    0.0436    0.2043    4.1830 C   0  0  0  0  0  0
    0.0705    1.3893    3.8911 O   0  0  0  0  0  0
    1.1762   -0.5476    4.2858 N   0  0  0  0  0  0
   -1.0994   -1.4954    4.9346 H   0  0  0  0  0  0
   -1.7529   -0.6930    3.4966 H   0  0  0  0  0  0
   -1.8846    0.0926    5.0627 H   0  0  0  0  0  0
    2.0471   -0.1250    4.0171 H   0  0  0  0  0  0
    1.1372   -1.5395    4.4172 H   0  0  0  0  0  0
   -2.5878   -0.3231    0.4695 C   0  0  0  0  0  0
   -1.3096    0.4974    0.5851 C   0  0  0  0  0  0
   -0.0568   -0.3683    0.5584 C   0  0  0  0  0  0
    1.2316    0.4401    0.6320 C   0  0  0  0  0  0
    2.4726   -0.4431    0.6192 C   0  0  0  0  0  0
   -2.6104   -0.8764   -0.4696 H   0  0  0  0  0  0
   -2.6597   -1.0519    1.2777 H   0  0  0  0  0  0
   -3.4760    0.3056    0.5090 H   0  0  0  0  0  0
   -1.3173    1.0833    1.5063 H   0  0  0  0  0  0
   -1.2624    1.2156   -0.2368 H   0  0  0  0  0  0
   -0.0862   -1.0734    1.3959 H   0  0  0  0  0  0
   -0.0538   -0.9768   -0.3515 H   0  0  0  0  0  0
    1.2133    1.0536    1.5346 H   0  0  0  0  0  0
    1.2663    1.1314   -0.2131 H   0  0  0  0  0  0
    2.5207   -1.0353   -0.2949 H   0  0  0  0  0  0
    3.3877    0.1441    0.6839 H   0  0  0  0  0  0
    2.4593   -1.1394    1.4586 H   0  0  0  0  0  0
  1  2  1  0  0  0
  2  3  2  0  0  0
  2  4  1  0  0  0
  1  5  1  0  0  0
  1  6  1  0  0  0
  1  7  1  0  0  0
  4  8  1  0  0  0
  4  9  1  0  0  0
 10 11  1  0  0  0
 11 12  1  0  0  0
 12 13  1  0  0  0
 13 14  1  0  0  0
 10 15  1  0  0  0
 10 16  1  0  0  0
 10 17  1  0  0  0
 11 18  1  0  0  0
 11 19  1  0  0  0
 12 20  1  0  0  0
 12 21  1  0  0  0
 13 22  1  0  0  0
 13 23  1  0  0  0
 14 24  1  0  0  0
 14 25  1  0  0  0
 14 26  1  0  0  0
M  END
$$$$
