


 18 16  0  0  1  0            999 V2000
   -2.8167    1.1560   -0.1106 C   0  0  0  0  0  0
   -1.3097    1.1802   -0.0252 C   0  0  0  0  0  0
   -0.7253    2.1551    0.4527 O   0  0  0  0  0  0
   -0.6656    0.0950   -0.4920 N   0  0  0  0  0  0
   -3.2206    1.2625    0.8931 H   0  0  0  0  0  0
   -3.2094    0.2486   -0.5619 H   0  0  0  0  0  0
   -3.1432    2.0166   -0.6889 H   0  0  0  0  0  0
    0.3546    0.0514   -0.4593 H   0  0  0  0  0  0
   -1.1836   -0.6736   -0.8708 H   0  0  0  0  0  0
    4.2082    1.0865    0.2147 C   0  0  0  0  0  0
    2.7013    1.0623    0.1295 C   0  0  0  0  0  0
    2.1168    0.0882   -0.3503 O   0  0  0  0  0  0
    2.0572    2.1470    0.5973 N   0  0  0  0  0  0
    4.6001    1.9862    0.6819 H   0  0  0  0  0  0
    4.6118    0.9990   -0.7911 H   0  0  0  0  0  0
    4.5360    0.2160    0.7769 H   0  0  0  0  0  0
    1.0371    2.1914    0.5630 H   0  0  0  0  0  0
    2.5752    2.9150    0.9775 H   0  0  0  0  0  0
  1  2  1  0  0  0
  2  3  2  0  0  0
  2  4  1  0  0  0
  1  5  1  0  0  0
  1  6  1  0  0  0
  1  7  1  0  0  0
  4  8  1  0  0  0
  4  9  1  0  0  0
 10 11  1  0  0  0
 11 12  2  0  0  0
 11 13  1  0  0  0
 10 14  1  0  0  0
 10 15  1  0  0  0
 10 16  1  0  0  0
 13 17  1  0  0  0
 13 18  1  0  0  0
M  END
$$$$
