


 18 16  0  0  1  0            999 V2000
   -2.8167    1.1560   -0.1106 C   0  0  0  0  0  0
   -1.3097    1.1802   -0.0252 C   0  0  0  0  0  0
   -0.7253    2.1551    0.4527 O   0  0  0  0  0  0
   -0.6656    0.0950   -0.4920 N   0  0  0  0  0  0
   -3.2206    1.2625    0.8931 H   0  0  0  0  0  0
   -3.2094    0.2486   -0.5619 H   0  0  0  0  0  0
   -3.1432    2.0166   -0.6889 H   0  0  0  0  0  0
    0.3546    0.0514   -0.4593 H   0  0  0  0  0  0
   -1.1836   -0.6736   -0.8708 H   0  0  0  0  0  0
    5.2284    1.1077    0.2782 C   0  0  0  0  0  0
    3.7214    1.0834    0.1930 C   0  0  0  0  0  0
    3.1370    0.1094   -0.2868 O   0  0  0  0  0  0
    3.0773    2.1682    0.6608 N   0  0  0  0  0  0
    5.6203    2.0073    0.7454 H   0  0  0  0  0  0
    5.6320    1.0201   -0.7276 H   0  0  0  0  0  0
    5.5562    0.2371    0.8404 H   0  0  0  0  0  0
    2.0572    2.2126    0.6265 H   0  0  0  0  0  0
    3.5954    2.9361    1.0409 H   0  0  0  0  0  0
  1  2  1  0  0  0
  2  3  2  0  0  0
  2  4  1  0  0  0
  1  5  1  0  0  0
  1  6  1  0  0  0
  1  7  1  0  0  0
  4  8  1  0  0  0
  4  9  1  0  0  0
 10 11  1  0  0  0
 11 12  2  0  0  0
 11 13  1  0  0  0
 10 14  1  0  0  0
 10 15  1  0  0  0
 10 16  1  0  0  0
 13 17  1  0  0  0
 13 18  1  0  0  0
M  END
$$$$
