


 18 16  0  0  1  0            999 V2000
   -2.8167    1.1560   -0.1106 C   0  0  0  0  0  0
   -1.3097    1.1802   -0.0252 C   0  0  0  0  0  0
   -0.7253    2.1551    0.4527 O   0  0  0  0  0  0
   -0.6656    0.0950   -0.4920 N   0  0  0  0  0  0
   -3.2206    1.2625    0.8931 H   0  0  0  0  0  0
   -3.2094    0.2486   -0.5619 H   0  0  0  0  0  0
   -3.1432    2.0166   -0.6889 H   0  0  0  0  0  0
    0.3546    0.0514   -0.4593 H   0  0  0  0  0  0
   -1.1836   -0.6736   -0.8708 H   0  0  0  0  0  0
    4.1155    1.0846    0.2089 C   0  0  0  0  0  0
    2.6085    1.0603    0.1237 C   0  0  0  0  0  0
    2.0241    0.0863   -0.3560 O   0  0  0  0  0  0
    1.9644    2.1451    0.5915 N   0  0  0  0  0  0
    4.5074    1.9843    0.6761 H   0  0  0  0  0  0
    4.5191    0.9971   -0.7969 H   0  0  0  0  0  0
    4.4433    0.2140    0.7711 H   0  0  0  0  0  0
    0.9443    2.1895    0.5573 H   0  0  0  0  0  0
    2.4824    2.9130    0.9717 H   0  0  0  0  0  0
  1  2  1  0  0  0
  2  3  2  0  0  0
  2  4  1  0  0  0
  1  5  1  0  0  0
  1  6  1  0  0  0
  1  7  1  0  0  0
  4  8  1  0  0  0
  4  9  1  0  0  0
 10 11  1  0  0  0
 11 12  2  0  0  0
 11 13  1  0  0  0
 10 14  1  0  0  0
 10 15  1  0  0  0
 10 16  1  0  0  0
 13 17  1  0  0  0
 13 18  1  0  0  0
M  END
$$$$
