


 18 16  0  0  1  0            999 V2000
   -2.8167    1.1560   -0.1106 C   0  0  0  0  0  0
   -1.3097    1.1802   -0.0252 C   0  0  0  0  0  0
   -0.7253    2.1551    0.4527 O   0  0  0  0  0  0
   -0.6656    0.0950   -0.4920 N   0  0  0  0  0  0
   -3.2206    1.2625    0.8931 H   0  0  0  0  0  0
   -3.2094    0.2486   -0.5619 H   0  0  0  0  0  0
   -3.1432    2.0166   -0.6889 H   0  0  0  0  0  0
    0.3546    0.0514   -0.4593 H   0  0  0  0  0  0
   -1.1836   -0.6736   -0.8708 H   0  0  0  0  0  0
    4.4865    1.0923    0.2320 C   0  0  0  0  0  0
    2.9795    1.0680    0.1468 C   0  0  0  0  0  0
    2.3951    0.0940   -0.3329 O   0  0  0  0  0  0
    2.3354    2.1528    0.6146 N   0  0  0  0  0  0
    4.8783    1.9920    0.6992 H   0  0  0  0  0  0
    4.8900    1.0048   -0.7738 H   0  0  0  0  0  0
    4.8142    0.2217    0.7942 H   0  0  0  0  0  0
    1.3153    2.1972    0.5803 H   0  0  0  0  0  0
    2.8534    2.9207    0.9948 H   0  0  0  0  0  0
  1  2  1  0  0  0
  2  3  2  0  0  0
  2  4  1  0  0  0
  1  5  1  0  0  0
  1  6  1  0  0  0
  1  7  1  0  0  0
  4  8  1  0  0  0
  4  9  1  0  0  0
 10 11  1  0  0  0
 11 12  2  0  0  0
 11 13  1  0  0  0
 10 14  1  0  0  0
 10 15  1  0  0  0
 10 16  1  0  0  0
 13 17  1  0  0  0
 13 18  1  0  0  0
M  END
$$$$
