


 18 16  0  0  1  0            999 V2000
   -2.8167    1.1560   -0.1106 C   0  0  0  0  0  0
   -1.3097    1.1802   -0.0252 C   0  0  0  0  0  0
   -0.7253    2.1551    0.4527 O   0  0  0  0  0  0
   -0.6656    0.0950   -0.4920 N   0  0  0  0  0  0
   -3.2206    1.2625    0.8931 H   0  0  0  0  0  0
   -3.2094    0.2486   -0.5619 H   0  0  0  0  0  0
   -3.1432    2.0166   -0.6889 H   0  0  0  0  0  0
    0.3546    0.0514   -0.4593 H   0  0  0  0  0  0
   -1.1836   -0.6736   -0.8708 H   0  0  0  0  0  0
    4.3937    1.0904    0.2262 C   0  0  0  0  0  0
    2.8867    1.0661    0.1410 C   0  0  0  0  0  0
    2.3023    0.0921   -0.3387 O   0  0  0  0  0  0
    2.2426    2.1509    0.6089 N   0  0  0  0  0  0
    4.7856    1.9900    0.6934 H   0  0  0  0  0  0
    4.7973    1.0029   -0.7795 H   0  0  0  0  0  0
    4.7215    0.2198    0.7884 H   0  0  0  0  0  0
    1.2225    2.1953    0.5746 H   0  0  0  0  0  0
    2.7607    2.9188    0.9890 H   0  0  0  0  0  0
  1  2  1  0  0  0
  2  3  2  0  0  0
  2  4  1  0  0  0
  1  5  1  0  0  0
  1  6  1  0  0  0
  1  7  1  0  0  0
  4  8  1  0  0  0
  4  9  1  0  0  0
 10 11  1  0  0  0
 11 12  2  0  0  0
 11 13  1  0  0  0
 10 14  1  0  0  0
 10 15  1  0  0  0
 10 16  1  0  0  0
 13 17  1  0  0  0
 13 18  1  0  0  0
M  END
$$$$
