


 18 16  0  0  1  0            999 V2000
   -2.8167    1.1560   -0.1106 C   0  0  0  0  0  0
   -1.3097    1.1802   -0.0252 C   0  0  0  0  0  0
   -0.7253    2.1551    0.4527 O   0  0  0  0  0  0
   -0.6656    0.0950   -0.4920 N   0  0  0  0  0  0
   -3.2206    1.2625    0.8931 H   0  0  0  0  0  0
   -3.2094    0.2486   -0.5619 H   0  0  0  0  0  0
   -3.1432    2.0166   -0.6889 H   0  0  0  0  0  0
    0.3546    0.0514   -0.4593 H   0  0  0  0  0  0
   -1.1836   -0.6736   -0.8708 H   0  0  0  0  0  0
    6.3052    1.1300    0.3452 C   0  0  0  0  0  0
    4.7982    1.1057    0.2600 C   0  0  0  0  0  0
    4.2137    0.1317   -0.2197 O   0  0  0  0  0  0
    4.1541    2.1905    0.7278 N   0  0  0  0  0  0
    6.6971    2.0297    0.8124 H   0  0  0  0  0  0
    6.7087    1.0425   -0.6606 H   0  0  0  0  0  0
    6.6329    0.2594    0.9074 H   0  0  0  0  0  0
    3.1340    2.2349    0.6935 H   0  0  0  0  0  0
    4.6721    2.9585    1.1080 H   0  0  0  0  0  0
  1  2  1  0  0  0
  2  3  2  0  0  0
  2  4  1  0  0  0
  1  5  1  0  0  0
  1  6  1  0  0  0
  1  7  1  0  0  0
  4  8  1  0  0  0
  4  9  1  0  0  0
 10 11  1  0  0  0
 11 12  2  0  0  0
 11 13  1  0  0  0
 10 14  1  0  0  0
 10 15  1  0  0  0
 10 16  1  0  0  0
 13 17  1  0  0  0
 13 18  1  0  0  0
M  END
$$$$
