


 18 16  0  0  1  0            999 V2000
   -2.8167    1.1560   -0.1106 C   0  0  0  0  0  0
   -1.3097    1.1802   -0.0252 C   0  0  0  0  0  0
   -0.7253    2.1551    0.4527 O   0  0  0  0  0  0
   -0.6656    0.0950   -0.4920 N   0  0  0  0  0  0
   -3.2206    1.2625    0.8931 H   0  0  0  0  0  0
   -3.2094    0.2486   -0.5619 H   0  0  0  0  0  0
   -3.1432    2.0166   -0.6889 H   0  0  0  0  0  0
    0.3546    0.0514   -0.4593 H   0  0  0  0  0  0
   -1.1836   -0.6736   -0.8708 H   0  0  0  0  0  0
    4.7647    1.0981    0.2493 C   0  0  0  0  0  0
    3.2577    1.0738    0.1641 C   0  0  0  0  0  0
    2.6733    0.0998   -0.3156 O   0  0  0  0  0  0
    2.6136    2.1585    0.6320 N   0  0  0  0  0  0
    5.1566    1.9977    0.7165 H   0  0  0  0  0  0
    5.1683    1.0105   -0.7564 H   0  0  0  0  0  0
    5.0925    0.2275    0.8115 H   0  0  0  0  0  0
    1.5935    2.2030    0.5977 H   0  0  0  0  0  0
    3.1316    2.9265    1.0121 H   0  0  0  0  0  0
  1  2  1  0  0  0
  2  3  2  0  0  0
  2  4  1  0  0  0
  1  5  1  0  0  0
  1  6  1  0  0  0
  1  7  1  0  0  0
  4  8  1  0  0  0
  4  9  1  0  0  0
 10 11  1  0  0  0
 11 12  2  0  0  0
 11 13  1  0  0  0
 10 14  1  0  0  0
 10 15  1  0  0  0
 10 16  1  0  0  0
 13 17  1  0  0  0
 13 18  1  0  0  0
M  END
$$$$
