


 34 32  0  0  1  0            999 V2000
   -1.0406    0.3968    1.0609 C   0  0  0  0  0  0
    0.3825   -0.0706    0.7669 C   0  0  0  0  0  0
    0.5908   -1.4668    1.3480 C   0  0  0  0  0  0
    1.3783    0.8984    1.3992 C   0  0  0  0  0  0
    0.6020   -0.1110   -0.7431 C   0  0  0  0  0  0
   -1.7716   -0.2815    0.6183 H   0  0  0  0  0  0
   -1.2247    0.4357    2.1355 H   0  0  0  0  0  0
   -1.2141    1.3937    0.6531 H   0  0  0  0  0  0
    1.6029   -1.8230    1.1501 H   0  0  0  0  0  0
    0.4390   -1.4668    2.4283 H   0  0  0  0  0  0
   -0.1099   -2.1787    0.9093 H   0  0  0  0  0  0
    2.4044    0.5854    1.2007 H   0  0  0  0  0  0
    1.2438    0.9460    2.4807 H   0  0  0  0  0  0
    1.2484    1.9050    0.9990 H   0  0  0  0  0  0
    0.4592    0.8770   -1.1829 H   0  0  0  0  0  0
    1.6137   -0.4435   -0.9797 H   0  0  0  0  0  0
   -0.0995   -0.7976   -1.2192 H   0  0  0  0  0  0
    1.0187   -0.3943    5.8729 C   0  0  0  0  0  0
   -0.4041    0.0747    6.1663 C   0  0  0  0  0  0
   -0.6105    1.4713    5.5855 C   0  0  0  0  0  0
   -0.6244    0.1149    7.6761 C   0  0  0  0  0  0
   -1.4006   -0.8931    5.5331 C   0  0  0  0  0  0
    1.2031   -0.4336    4.7984 H   0  0  0  0  0  0
    1.7501    0.2834    6.3156 H   0  0  0  0  0  0
    1.1909   -1.3913    6.2810 H   0  0  0  0  0  0
   -1.6225    1.8282    5.7823 H   0  0  0  0  0  0
    0.0904    2.1823    6.0252 H   0  0  0  0  0  0
   -0.4574    1.4714    4.5053 H   0  0  0  0  0  0
   -1.6357    0.4491    7.9122 H   0  0  0  0  0  0
    0.0781    0.7998    8.1530 H   0  0  0  0  0  0
   -0.4839   -0.8737    8.1156 H   0  0  0  0  0  0
   -1.2717   -1.9001    5.9327 H   0  0  0  0  0  0
   -2.4265   -0.5793    5.7315 H   0  0  0  0  0  0
   -1.2659   -0.9401    4.4516 H   0  0  0  0  0  0
  1  2  1  0  0  0
  2  3  1  0  0  0
  2  4  1  0  0  0
  2  5  1  0  0  0
  1  6  1  0  0  0
  1  7  1  0  0  0
  1  8  1  0  0  0
  3  9  1  0  0  0
  3 10  1  0  0  0
  3 11  1  0  0  0
  4 12  1  0  0  0
  4 13  1  0  0  0
  4 14  1  0  0  0
  5 15  1  0  0  0
  5 16  1  0  0  0
  5 17  1  0  0  0
 18 19  1  0  0  0
 19 20  1  0  0  0
 19 21  1  0  0  0
 19 22  1  0  0  0
 18 23  1  0  0  0
 18 24  1  0  0  0
 18 25  1  0  0  0
 20 26  1  0  0  0
 20 27  1  0  0  0
 20 28  1  0  0  0
 21 29  1  0  0  0
 21 30  1  0  0  0
 21 31  1  0  0  0
 22 32  1  0  0  0
 22 33  1  0  0  0
 22 34  1  0  0  0
M  END
$$$$
