


 34 32  0  0  1  0            999 V2000
   -1.0406    0.3968    1.0609 C   0  0  0  0  0  0
    0.3825   -0.0706    0.7669 C   0  0  0  0  0  0
    0.5908   -1.4668    1.3480 C   0  0  0  0  0  0
    1.3783    0.8984    1.3992 C   0  0  0  0  0  0
    0.6020   -0.1110   -0.7431 C   0  0  0  0  0  0
   -1.7716   -0.2815    0.6183 H   0  0  0  0  0  0
   -1.2247    0.4357    2.1355 H   0  0  0  0  0  0
   -1.2141    1.3937    0.6531 H   0  0  0  0  0  0
    1.6029   -1.8230    1.1501 H   0  0  0  0  0  0
    0.4390   -1.4668    2.4283 H   0  0  0  0  0  0
   -0.1099   -2.1787    0.9093 H   0  0  0  0  0  0
    2.4044    0.5854    1.2007 H   0  0  0  0  0  0
    1.2438    0.9460    2.4807 H   0  0  0  0  0  0
    1.2484    1.9050    0.9990 H   0  0  0  0  0  0
    0.4592    0.8770   -1.1829 H   0  0  0  0  0  0
    1.6137   -0.4435   -0.9797 H   0  0  0  0  0  0
   -0.0995   -0.7976   -1.2192 H   0  0  0  0  0  0
    0.8316   -0.3597    7.1571 C   0  0  0  0  0  0
   -0.5912    0.1093    7.4506 C   0  0  0  0  0  0
   -0.7976    1.5058    6.8697 C   0  0  0  0  0  0
   -0.8115    0.1494    8.9604 C   0  0  0  0  0  0
   -1.5877   -0.8585    6.8174 C   0  0  0  0  0  0
    1.0160   -0.3990    6.0826 H   0  0  0  0  0  0
    1.5630    0.3180    7.5999 H   0  0  0  0  0  0
    1.0038   -1.3567    7.5653 H   0  0  0  0  0  0
   -1.8096    1.8628    7.0666 H   0  0  0  0  0  0
   -0.0967    2.2169    7.3094 H   0  0  0  0  0  0
   -0.6445    1.5060    5.7896 H   0  0  0  0  0  0
   -1.8227    0.4837    9.1965 H   0  0  0  0  0  0
   -0.1090    0.8344    9.4372 H   0  0  0  0  0  0
   -0.6710   -0.8391    9.3998 H   0  0  0  0  0  0
   -1.4588   -1.8655    7.2170 H   0  0  0  0  0  0
   -2.6136   -0.5447    7.0158 H   0  0  0  0  0  0
   -1.4530   -0.9055    5.7358 H   0  0  0  0  0  0
  1  2  1  0  0  0
  2  3  1  0  0  0
  2  4  1  0  0  0
  2  5  1  0  0  0
  1  6  1  0  0  0
  1  7  1  0  0  0
  1  8  1  0  0  0
  3  9  1  0  0  0
  3 10  1  0  0  0
  3 11  1  0  0  0
  4 12  1  0  0  0
  4 13  1  0  0  0
  4 14  1  0  0  0
  5 15  1  0  0  0
  5 16  1  0  0  0
  5 17  1  0  0  0
 18 19  1  0  0  0
 19 20  1  0  0  0
 19 21  1  0  0  0
 19 22  1  0  0  0
 18 23  1  0  0  0
 18 24  1  0  0  0
 18 25  1  0  0  0
 20 26  1  0  0  0
 20 27  1  0  0  0
 20 28  1  0  0  0
 21 29  1  0  0  0
 21 30  1  0  0  0
 21 31  1  0  0  0
 22 32  1  0  0  0
 22 33  1  0  0  0
 22 34  1  0  0  0
M  END
$$$$
