


 34 32  0  0  1  0            999 V2000
   -1.0406    0.3968    1.0609 C   0  0  0  0  0  0
    0.3825   -0.0706    0.7669 C   0  0  0  0  0  0
    0.5908   -1.4668    1.3480 C   0  0  0  0  0  0
    1.3783    0.8984    1.3992 C   0  0  0  0  0  0
    0.6020   -0.1110   -0.7431 C   0  0  0  0  0  0
   -1.7716   -0.2815    0.6183 H   0  0  0  0  0  0
   -1.2247    0.4357    2.1355 H   0  0  0  0  0  0
   -1.2141    1.3937    0.6531 H   0  0  0  0  0  0
    1.6029   -1.8230    1.1501 H   0  0  0  0  0  0
    0.4390   -1.4668    2.4283 H   0  0  0  0  0  0
   -0.1099   -2.1787    0.9093 H   0  0  0  0  0  0
    2.4044    0.5854    1.2007 H   0  0  0  0  0  0
    1.2438    0.9460    2.4807 H   0  0  0  0  0  0
    1.2484    1.9050    0.9990 H   0  0  0  0  0  0
    0.4592    0.8770   -1.1829 H   0  0  0  0  0  0
    1.6137   -0.4435   -0.9797 H   0  0  0  0  0  0
   -0.0995   -0.7976   -1.2192 H   0  0  0  0  0  0
    0.9968   -0.3902    6.0227 C   0  0  0  0  0  0
   -0.4260    0.0787    6.3161 C   0  0  0  0  0  0
   -0.6324    1.4753    5.7353 C   0  0  0  0  0  0
   -0.6463    0.1189    7.8260 C   0  0  0  0  0  0
   -1.4224   -0.8891    5.6830 C   0  0  0  0  0  0
    1.1813   -0.4296    4.9482 H   0  0  0  0  0  0
    1.7283    0.2874    6.4655 H   0  0  0  0  0  0
    1.1691   -1.3872    6.4309 H   0  0  0  0  0  0
   -1.6443    1.8323    5.9321 H   0  0  0  0  0  0
    0.0685    2.1864    6.1750 H   0  0  0  0  0  0
   -0.4793    1.4755    4.6552 H   0  0  0  0  0  0
   -1.6575    0.4532    8.0621 H   0  0  0  0  0  0
    0.0562    0.8038    8.3028 H   0  0  0  0  0  0
   -0.5057   -0.8696    8.2654 H   0  0  0  0  0  0
   -1.2935   -1.8960    6.0826 H   0  0  0  0  0  0
   -2.4483   -0.5753    5.8814 H   0  0  0  0  0  0
   -1.2877   -0.9360    4.6014 H   0  0  0  0  0  0
  1  2  1  0  0  0
  2  3  1  0  0  0
  2  4  1  0  0  0
  2  5  1  0  0  0
  1  6  1  0  0  0
  1  7  1  0  0  0
  1  8  1  0  0  0
  3  9  1  0  0  0
  3 10  1  0  0  0
  3 11  1  0  0  0
  4 12  1  0  0  0
  4 13  1  0  0  0
  4 14  1  0  0  0
  5 15  1  0  0  0
  5 16  1  0  0  0
  5 17  1  0  0  0
 18 19  1  0  0  0
 19 20  1  0  0  0
 19 21  1  0  0  0
 19 22  1  0  0  0
 18 23  1  0  0  0
 18 24  1  0  0  0
 18 25  1  0  0  0
 20 26  1  0  0  0
 20 27  1  0  0  0
 20 28  1  0  0  0
 21 29  1  0  0  0
 21 30  1  0  0  0
 21 31  1  0  0  0
 22 32  1  0  0  0
 22 33  1  0  0  0
 22 34  1  0  0  0
M  END
$$$$
