


 34 32  0  0  1  0            999 V2000
   -1.0406    0.3968    1.0609 C   0  0  0  0  0  0
    0.3825   -0.0706    0.7669 C   0  0  0  0  0  0
    0.5908   -1.4668    1.3480 C   0  0  0  0  0  0
    1.3783    0.8984    1.3992 C   0  0  0  0  0  0
    0.6020   -0.1110   -0.7431 C   0  0  0  0  0  0
   -1.7716   -0.2815    0.6183 H   0  0  0  0  0  0
   -1.2247    0.4357    2.1355 H   0  0  0  0  0  0
   -1.2141    1.3937    0.6531 H   0  0  0  0  0  0
    1.6029   -1.8230    1.1501 H   0  0  0  0  0  0
    0.4390   -1.4668    2.4283 H   0  0  0  0  0  0
   -0.1099   -2.1787    0.9093 H   0  0  0  0  0  0
    2.4044    0.5854    1.2007 H   0  0  0  0  0  0
    1.2438    0.9460    2.4807 H   0  0  0  0  0  0
    1.2484    1.9050    0.9990 H   0  0  0  0  0  0
    0.4592    0.8770   -1.1829 H   0  0  0  0  0  0
    1.6137   -0.4435   -0.9797 H   0  0  0  0  0  0
   -0.0995   -0.7976   -1.2192 H   0  0  0  0  0  0
    1.0873   -0.4069    5.4019 C   0  0  0  0  0  0
   -0.3355    0.0620    5.6953 C   0  0  0  0  0  0
   -0.5419    1.4586    5.1145 C   0  0  0  0  0  0
   -0.5558    0.1022    7.2052 C   0  0  0  0  0  0
   -1.3320   -0.9058    5.0622 C   0  0  0  0  0  0
    1.2717   -0.4463    4.3274 H   0  0  0  0  0  0
    1.8187    0.2707    5.8446 H   0  0  0  0  0  0
    1.2596   -1.4040    5.8100 H   0  0  0  0  0  0
   -1.5539    1.8156    5.3113 H   0  0  0  0  0  0
    0.1590    2.1697    5.5542 H   0  0  0  0  0  0
   -0.3888    1.4588    4.0343 H   0  0  0  0  0  0
   -1.5670    0.4365    7.4412 H   0  0  0  0  0  0
    0.1467    0.7871    7.6820 H   0  0  0  0  0  0
   -0.4153   -0.8863    7.6446 H   0  0  0  0  0  0
   -1.2031   -1.9127    5.4617 H   0  0  0  0  0  0
   -2.3579   -0.5920    5.2606 H   0  0  0  0  0  0
   -1.1973   -0.9527    3.9806 H   0  0  0  0  0  0
  1  2  1  0  0  0
  2  3  1  0  0  0
  2  4  1  0  0  0
  2  5  1  0  0  0
  1  6  1  0  0  0
  1  7  1  0  0  0
  1  8  1  0  0  0
  3  9  1  0  0  0
  3 10  1  0  0  0
  3 11  1  0  0  0
  4 12  1  0  0  0
  4 13  1  0  0  0
  4 14  1  0  0  0
  5 15  1  0  0  0
  5 16  1  0  0  0
  5 17  1  0  0  0
 18 19  1  0  0  0
 19 20  1  0  0  0
 19 21  1  0  0  0
 19 22  1  0  0  0
 18 23  1  0  0  0
 18 24  1  0  0  0
 18 25  1  0  0  0
 20 26  1  0  0  0
 20 27  1  0  0  0
 20 28  1  0  0  0
 21 29  1  0  0  0
 21 30  1  0  0  0
 21 31  1  0  0  0
 22 32  1  0  0  0
 22 33  1  0  0  0
 22 34  1  0  0  0
M  END
$$$$
