


 34 32  0  0  1  0            999 V2000
   -1.0406    0.3968    1.0609 C   0  0  0  0  0  0
    0.3825   -0.0706    0.7669 C   0  0  0  0  0  0
    0.5908   -1.4668    1.3480 C   0  0  0  0  0  0
    1.3783    0.8984    1.3992 C   0  0  0  0  0  0
    0.6020   -0.1110   -0.7431 C   0  0  0  0  0  0
   -1.7716   -0.2815    0.6183 H   0  0  0  0  0  0
   -1.2247    0.4357    2.1355 H   0  0  0  0  0  0
   -1.2141    1.3937    0.6531 H   0  0  0  0  0  0
    1.6029   -1.8230    1.1501 H   0  0  0  0  0  0
    0.4390   -1.4668    2.4283 H   0  0  0  0  0  0
   -0.1099   -2.1787    0.9093 H   0  0  0  0  0  0
    2.4044    0.5854    1.2007 H   0  0  0  0  0  0
    1.2438    0.9460    2.4807 H   0  0  0  0  0  0
    1.2484    1.9050    0.9990 H   0  0  0  0  0  0
    0.4592    0.8770   -1.1829 H   0  0  0  0  0  0
    1.6137   -0.4435   -0.9797 H   0  0  0  0  0  0
   -0.0995   -0.7976   -1.2192 H   0  0  0  0  0  0
    0.9333   -0.3785    6.4588 C   0  0  0  0  0  0
   -0.4895    0.0905    6.7522 C   0  0  0  0  0  0
   -0.6959    1.4870    6.1714 C   0  0  0  0  0  0
   -0.7098    0.1306    8.2620 C   0  0  0  0  0  0
   -1.4860   -0.8773    6.1191 C   0  0  0  0  0  0
    1.1178   -0.4178    5.3843 H   0  0  0  0  0  0
    1.6647    0.2992    6.9015 H   0  0  0  0  0  0
    1.1056   -1.3755    6.8669 H   0  0  0  0  0  0
   -1.7079    1.8440    6.3682 H   0  0  0  0  0  0
    0.0050    2.1981    6.6111 H   0  0  0  0  0  0
   -0.5428    1.4872    5.0912 H   0  0  0  0  0  0
   -1.7210    0.4649    8.4981 H   0  0  0  0  0  0
   -0.0073    0.8156    8.7389 H   0  0  0  0  0  0
   -0.5692   -0.8579    8.7015 H   0  0  0  0  0  0
   -1.3570   -1.8843    6.5186 H   0  0  0  0  0  0
   -2.5119   -0.5635    6.3174 H   0  0  0  0  0  0
   -1.3513   -0.9243    5.0375 H   0  0  0  0  0  0
  1  2  1  0  0  0
  2  3  1  0  0  0
  2  4  1  0  0  0
  2  5  1  0  0  0
  1  6  1  0  0  0
  1  7  1  0  0  0
  1  8  1  0  0  0
  3  9  1  0  0  0
  3 10  1  0  0  0
  3 11  1  0  0  0
  4 12  1  0  0  0
  4 13  1  0  0  0
  4 14  1  0  0  0
  5 15  1  0  0  0
  5 16  1  0  0  0
  5 17  1  0  0  0
 18 19  1  0  0  0
 19 20  1  0  0  0
 19 21  1  0  0  0
 19 22  1  0  0  0
 18 23  1  0  0  0
 18 24  1  0  0  0
 18 25  1  0  0  0
 20 26  1  0  0  0
 20 27  1  0  0  0
 20 28  1  0  0  0
 21 29  1  0  0  0
 21 30  1  0  0  0
 21 31  1  0  0  0
 22 32  1  0  0  0
 22 33  1  0  0  0
 22 34  1  0  0  0
M  END
$$$$
