


 34 32  0  0  1  0            999 V2000
   -1.0406    0.3968    1.0609 C   0  0  0  0  0  0
    0.3825   -0.0706    0.7669 C   0  0  0  0  0  0
    0.5908   -1.4668    1.3480 C   0  0  0  0  0  0
    1.3783    0.8984    1.3992 C   0  0  0  0  0  0
    0.6020   -0.1110   -0.7431 C   0  0  0  0  0  0
   -1.7716   -0.2815    0.6183 H   0  0  0  0  0  0
   -1.2247    0.4357    2.1355 H   0  0  0  0  0  0
   -1.2141    1.3937    0.6531 H   0  0  0  0  0  0
    1.6029   -1.8230    1.1501 H   0  0  0  0  0  0
    0.4390   -1.4668    2.4283 H   0  0  0  0  0  0
   -0.1099   -2.1787    0.9093 H   0  0  0  0  0  0
    2.4044    0.5854    1.2007 H   0  0  0  0  0  0
    1.2438    0.9460    2.4807 H   0  0  0  0  0  0
    1.2484    1.9050    0.9990 H   0  0  0  0  0  0
    0.4592    0.8770   -1.1829 H   0  0  0  0  0  0
    1.6137   -0.4435   -0.9797 H   0  0  0  0  0  0
   -0.0995   -0.7976   -1.2192 H   0  0  0  0  0  0
    1.0410   -0.3984    5.7199 C   0  0  0  0  0  0
   -0.3819    0.0706    6.0133 C   0  0  0  0  0  0
   -0.5882    1.4671    5.4325 C   0  0  0  0  0  0
   -0.6021    0.1107    7.5231 C   0  0  0  0  0  0
   -1.3783   -0.8972    5.3801 C   0  0  0  0  0  0
    1.2254   -0.4377    4.6454 H   0  0  0  0  0  0
    1.7724    0.2793    6.1626 H   0  0  0  0  0  0
    1.2132   -1.3954    6.1280 H   0  0  0  0  0  0
   -1.6002    1.8241    5.6293 H   0  0  0  0  0  0
    0.1127    2.1782    5.8722 H   0  0  0  0  0  0
   -0.4351    1.4673    4.3523 H   0  0  0  0  0  0
   -1.6134    0.4450    7.7592 H   0  0  0  0  0  0
    0.1004    0.7957    8.0000 H   0  0  0  0  0  0
   -0.4616   -0.8778    7.9626 H   0  0  0  0  0  0
   -1.2494   -1.9042    5.7797 H   0  0  0  0  0  0
   -2.4042   -0.5834    5.5785 H   0  0  0  0  0  0
   -1.2436   -0.9442    4.2986 H   0  0  0  0  0  0
  1  2  1  0  0  0
  2  3  1  0  0  0
  2  4  1  0  0  0
  2  5  1  0  0  0
  1  6  1  0  0  0
  1  7  1  0  0  0
  1  8  1  0  0  0
  3  9  1  0  0  0
  3 10  1  0  0  0
  3 11  1  0  0  0
  4 12  1  0  0  0
  4 13  1  0  0  0
  4 14  1  0  0  0
  5 15  1  0  0  0
  5 16  1  0  0  0
  5 17  1  0  0  0
 18 19  1  0  0  0
 19 20  1  0  0  0
 19 21  1  0  0  0
 19 22  1  0  0  0
 18 23  1  0  0  0
 18 24  1  0  0  0
 18 25  1  0  0  0
 20 26  1  0  0  0
 20 27  1  0  0  0
 20 28  1  0  0  0
 21 29  1  0  0  0
 21 30  1  0  0  0
 21 31  1  0  0  0
 22 32  1  0  0  0
 22 33  1  0  0  0
 22 34  1  0  0  0
M  END
$$$$
