


 34 32  0  0  1  0            999 V2000
   -1.0406    0.3968    1.0609 C   0  0  0  0  0  0
    0.3825   -0.0706    0.7669 C   0  0  0  0  0  0
    0.5908   -1.4668    1.3480 C   0  0  0  0  0  0
    1.3783    0.8984    1.3992 C   0  0  0  0  0  0
    0.6020   -0.1110   -0.7431 C   0  0  0  0  0  0
   -1.7716   -0.2815    0.6183 H   0  0  0  0  0  0
   -1.2247    0.4357    2.1355 H   0  0  0  0  0  0
   -1.2141    1.3937    0.6531 H   0  0  0  0  0  0
    1.6029   -1.8230    1.1501 H   0  0  0  0  0  0
    0.4390   -1.4668    2.4283 H   0  0  0  0  0  0
   -0.1099   -2.1787    0.9093 H   0  0  0  0  0  0
    2.4044    0.5854    1.2007 H   0  0  0  0  0  0
    1.2438    0.9460    2.4807 H   0  0  0  0  0  0
    1.2484    1.9050    0.9990 H   0  0  0  0  0  0
    0.4592    0.8770   -1.1829 H   0  0  0  0  0  0
    1.6137   -0.4435   -0.9797 H   0  0  0  0  0  0
   -0.0995   -0.7976   -1.2192 H   0  0  0  0  0  0
    1.0638   -0.4026    5.5633 C   0  0  0  0  0  0
   -0.3590    0.0664    5.8567 C   0  0  0  0  0  0
   -0.5654    1.4629    5.2759 C   0  0  0  0  0  0
   -0.5793    0.1065    7.3666 C   0  0  0  0  0  0
   -1.3555   -0.9014    5.2236 C   0  0  0  0  0  0
    1.2482   -0.4419    4.4888 H   0  0  0  0  0  0
    1.7952    0.2751    6.0061 H   0  0  0  0  0  0
    1.2360   -1.3996    5.9715 H   0  0  0  0  0  0
   -1.5774    1.8199    5.4728 H   0  0  0  0  0  0
    0.1355    2.1740    5.7156 H   0  0  0  0  0  0
   -0.4123    1.4631    4.1958 H   0  0  0  0  0  0
   -1.5905    0.4408    7.6027 H   0  0  0  0  0  0
    0.1232    0.7915    7.8434 H   0  0  0  0  0  0
   -0.4388   -0.8820    7.8060 H   0  0  0  0  0  0
   -1.2266   -1.9084    5.6232 H   0  0  0  0  0  0
   -2.3814   -0.5876    5.4220 H   0  0  0  0  0  0
   -1.2208   -0.9484    4.1420 H   0  0  0  0  0  0
  1  2  1  0  0  0
  2  3  1  0  0  0
  2  4  1  0  0  0
  2  5  1  0  0  0
  1  6  1  0  0  0
  1  7  1  0  0  0
  1  8  1  0  0  0
  3  9  1  0  0  0
  3 10  1  0  0  0
  3 11  1  0  0  0
  4 12  1  0  0  0
  4 13  1  0  0  0
  4 14  1  0  0  0
  5 15  1  0  0  0
  5 16  1  0  0  0
  5 17  1  0  0  0
 18 19  1  0  0  0
 19 20  1  0  0  0
 19 21  1  0  0  0
 19 22  1  0  0  0
 18 23  1  0  0  0
 18 24  1  0  0  0
 18 25  1  0  0  0
 20 26  1  0  0  0
 20 27  1  0  0  0
 20 28  1  0  0  0
 21 29  1  0  0  0
 21 30  1  0  0  0
 21 31  1  0  0  0
 22 32  1  0  0  0
 22 33  1  0  0  0
 22 34  1  0  0  0
M  END
$$$$
