


 34 32  0  0  1  0            999 V2000
   -1.0406    0.3968    1.0609 C   0  0  0  0  0  0
    0.3825   -0.0706    0.7669 C   0  0  0  0  0  0
    0.5908   -1.4668    1.3480 C   0  0  0  0  0  0
    1.3783    0.8984    1.3992 C   0  0  0  0  0  0
    0.6020   -0.1110   -0.7431 C   0  0  0  0  0  0
   -1.7716   -0.2815    0.6183 H   0  0  0  0  0  0
   -1.2247    0.4357    2.1355 H   0  0  0  0  0  0
   -1.2141    1.3937    0.6531 H   0  0  0  0  0  0
    1.6029   -1.8230    1.1501 H   0  0  0  0  0  0
    0.4390   -1.4668    2.4283 H   0  0  0  0  0  0
   -0.1099   -2.1787    0.9093 H   0  0  0  0  0  0
    2.4044    0.5854    1.2007 H   0  0  0  0  0  0
    1.2438    0.9460    2.4807 H   0  0  0  0  0  0
    1.2484    1.9050    0.9990 H   0  0  0  0  0  0
    0.4592    0.8770   -1.1829 H   0  0  0  0  0  0
    1.6137   -0.4435   -0.9797 H   0  0  0  0  0  0
   -0.0995   -0.7976   -1.2192 H   0  0  0  0  0  0
    0.6357   -0.3235    8.5017 C   0  0  0  0  0  0
   -0.7871    0.1454    8.7951 C   0  0  0  0  0  0
   -0.9935    1.5420    8.2142 C   0  0  0  0  0  0
   -1.0074    0.1856   10.3049 C   0  0  0  0  0  0
   -1.7836   -0.8223    8.1619 C   0  0  0  0  0  0
    0.8201   -0.3629    7.4271 H   0  0  0  0  0  0
    1.3671    0.3541    8.9444 H   0  0  0  0  0  0
    0.8080   -1.3205    8.9098 H   0  0  0  0  0  0
   -2.0055    1.8990    8.4111 H   0  0  0  0  0  0
   -0.2926    2.2531    8.6540 H   0  0  0  0  0  0
   -0.8404    1.5422    7.1341 H   0  0  0  0  0  0
   -2.0186    0.5199   10.5410 H   0  0  0  0  0  0
   -0.3049    0.8706   10.7818 H   0  0  0  0  0  0
   -0.8669   -0.8029   10.7444 H   0  0  0  0  0  0
   -1.6547   -1.8293    8.5615 H   0  0  0  0  0  0
   -2.8095   -0.5086    8.3603 H   0  0  0  0  0  0
   -1.6489   -0.8693    7.0803 H   0  0  0  0  0  0
  1  2  1  0  0  0
  2  3  1  0  0  0
  2  4  1  0  0  0
  2  5  1  0  0  0
  1  6  1  0  0  0
  1  7  1  0  0  0
  1  8  1  0  0  0
  3  9  1  0  0  0
  3 10  1  0  0  0
  3 11  1  0  0  0
  4 12  1  0  0  0
  4 13  1  0  0  0
  4 14  1  0  0  0
  5 15  1  0  0  0
  5 16  1  0  0  0
  5 17  1  0  0  0
 18 19  1  0  0  0
 19 20  1  0  0  0
 19 21  1  0  0  0
 19 22  1  0  0  0
 18 23  1  0  0  0
 18 24  1  0  0  0
 18 25  1  0  0  0
 20 26  1  0  0  0
 20 27  1  0  0  0
 20 28  1  0  0  0
 21 29  1  0  0  0
 21 30  1  0  0  0
 21 31  1  0  0  0
 22 32  1  0  0  0
 22 33  1  0  0  0
 22 34  1  0  0  0
M  END
$$$$
