


  6  4  0  0  1  0            999 V2000
   -0.7022   -0.0561    0.0099 O   0  0  0  0  0  0
   -1.0222    0.8468   -0.0115 H   0  0  0  0  0  0
    0.2575    0.0421    0.0052 H   0  0  0  0  0  0
    2.2689    0.0263    0.0005 O   0  0  0  0  0  0
    2.6455   -0.4120    0.7666 H   0  0  0  0  0  0
    2.6411   -0.4499   -0.7449 H   0  0  0  0  0  0
  1  2  1  0  0  0
  1  3  1  0  0  0
  4  5  1  0  0  0
  4  6  1  0  0  0
M  END
$$$$
