


  6  4  0  0  1  0            999 V2000
   -0.7022   -0.0561    0.0099 O   0  0  0  0  0  0
   -1.0222    0.8468   -0.0115 H   0  0  0  0  0  0
    0.2575    0.0421    0.0052 H   0  0  0  0  0  0
    2.1684    0.0271    0.0007 O   0  0  0  0  0  0
    2.5450   -0.4112    0.7669 H   0  0  0  0  0  0
    2.5407   -0.4491   -0.7447 H   0  0  0  0  0  0
  1  2  1  0  0  0
  1  3  1  0  0  0
  4  5  1  0  0  0
  4  6  1  0  0  0
M  END
$$$$
