


  6  4  0  0  1  0            999 V2000
   -0.7022   -0.0561    0.0099 O   0  0  0  0  0  0
   -1.0222    0.8468   -0.0115 H   0  0  0  0  0  0
    0.2575    0.0421    0.0052 H   0  0  0  0  0  0
    2.4701    0.0248    0.0000 O   0  0  0  0  0  0
    2.8467   -0.4136    0.7662 H   0  0  0  0  0  0
    2.8424   -0.4514   -0.7454 H   0  0  0  0  0  0
  1  2  1  0  0  0
  1  3  1  0  0  0
  4  5  1  0  0  0
  4  6  1  0  0  0
M  END
$$$$
