


  6  4  0  0  1  0            999 V2000
   -0.7022   -0.0561    0.0099 O   0  0  0  0  0  0
   -1.0222    0.8468   -0.0115 H   0  0  0  0  0  0
    0.2575    0.0421    0.0052 H   0  0  0  0  0  0
    2.0678    0.0279    0.0010 O   0  0  0  0  0  0
    2.4444   -0.4105    0.7671 H   0  0  0  0  0  0
    2.4400   -0.4483   -0.7444 H   0  0  0  0  0  0
  1  2  1  0  0  0
  1  3  1  0  0  0
  4  5  1  0  0  0
  4  6  1  0  0  0
M  END
$$$$
