


 30 30  0  0  1  0            999 V2000
    0.9569   -0.8918    1.1420 C   0  0  0  0  0  0
    0.9909    0.6585    1.1455 C   0  0  0  0  0  0
   -0.4794    1.1023    1.1039 C   0  0  0  0  0  0
   -1.1821   -0.0528    0.3934 C   0  0  0  0  0  0
   -0.5307   -1.2749    1.0393 C   0  0  0  0  0  0
    1.5046   -1.2784    0.2834 H   0  0  0  0  0  0
    1.4214   -1.3148    2.0310 H   0  0  0  0  0  0
    1.5106    1.0231    0.2600 H   0  0  0  0  0  0
    1.5163    1.0598    2.0105 H   0  0  0  0  0  0
   -0.6163    2.0649    0.6136 H   0  0  0  0  0  0
   -0.8747    1.1891    2.1181 H   0  0  0  0  0  0
   -0.9489   -0.0268   -0.6738 H   0  0  0  0  0  0
   -2.2657   -0.0336    0.5013 H   0  0  0  0  0  0
   -0.6904   -2.1970    0.4830 H   0  0  0  0  0  0
   -0.9509   -1.4154    2.0368 H   0  0  0  0  0  0
   -1.1382   -0.3965    4.7701 C   0  0  0  0  0  0
    0.1754   -1.1920    4.7224 C   0  0  0  0  0  0
    1.3047   -0.1293    4.7229 C   0  0  0  0  0  0
    0.5945    1.2323    4.8308 C   0  0  0  0  0  0
   -0.7476    0.8978    5.4806 C   0  0  0  0  0  0
   -1.4714   -0.1598    3.7575 H   0  0  0  0  0  0
   -1.9430   -0.9396    5.2631 H   0  0  0  0  0  0
    0.2253   -1.8498    3.8562 H   0  0  0  0  0  0
    0.2557   -1.8234    5.6067 H   0  0  0  0  0  0
    1.9259   -0.1900    3.8311 H   0  0  0  0  0  0
    1.9621   -0.2792    5.5784 H   0  0  0  0  0  0
    0.4146    1.6408    3.8348 H   0  0  0  0  0  0
    1.1749    1.9667    5.3868 H   0  0  0  0  0  0
   -1.4872    1.6904    5.3757 H   0  0  0  0  0  0
   -0.6075    0.7062    6.5472 H   0  0  0  0  0  0
  1  2  1  0  0  0
  2  3  1  0  0  0
  3  4  1  0  0  0
  4  5  1  0  0  0
  1  5  1  0  0  0
  1  6  1  0  0  0
  1  7  1  0  0  0
  2  8  1  0  0  0
  2  9  1  0  0  0
  3 10  1  0  0  0
  3 11  1  0  0  0
  4 12  1  0  0  0
  4 13  1  0  0  0
  5 14  1  0  0  0
  5 15  1  0  0  0
 16 17  1  0  0  0
 17 18  1  0  0  0
 18 19  1  0  0  0
 19 20  1  0  0  0
 16 20  1  0  0  0
 16 21  1  0  0  0
 16 22  1  0  0  0
 17 23  1  0  0  0
 17 24  1  0  0  0
 18 25  1  0  0  0
 18 26  1  0  0  0
 19 27  1  0  0  0
 19 28  1  0  0  0
 20 29  1  0  0  0
 20 30  1  0  0  0
M  END
$$$$
