


 30 30  0  0  1  0            999 V2000
    0.9569   -0.8918    1.1420 C   0  0  0  0  0  0
    0.9909    0.6585    1.1455 C   0  0  0  0  0  0
   -0.4794    1.1023    1.1039 C   0  0  0  0  0  0
   -1.1821   -0.0528    0.3934 C   0  0  0  0  0  0
   -0.5307   -1.2749    1.0393 C   0  0  0  0  0  0
    1.5046   -1.2784    0.2834 H   0  0  0  0  0  0
    1.4214   -1.3148    2.0310 H   0  0  0  0  0  0
    1.5106    1.0231    0.2600 H   0  0  0  0  0  0
    1.5163    1.0598    2.0105 H   0  0  0  0  0  0
   -0.6163    2.0649    0.6136 H   0  0  0  0  0  0
   -0.8747    1.1891    2.1181 H   0  0  0  0  0  0
   -0.9489   -0.0268   -0.6738 H   0  0  0  0  0  0
   -2.2657   -0.0336    0.5013 H   0  0  0  0  0  0
   -0.6904   -2.1970    0.4830 H   0  0  0  0  0  0
   -0.9509   -1.4154    2.0368 H   0  0  0  0  0  0
   -1.1251   -0.3700    5.3714 C   0  0  0  0  0  0
    0.1885   -1.1656    5.3237 C   0  0  0  0  0  0
    1.3178   -0.1029    5.3243 C   0  0  0  0  0  0
    0.6077    1.2588    5.4321 C   0  0  0  0  0  0
   -0.7344    0.9243    6.0819 C   0  0  0  0  0  0
   -1.4582   -0.1333    4.3588 H   0  0  0  0  0  0
   -1.9299   -0.9131    5.8644 H   0  0  0  0  0  0
    0.2385   -1.8233    4.4575 H   0  0  0  0  0  0
    0.2688   -1.7969    6.2080 H   0  0  0  0  0  0
    1.9391   -0.1636    4.4324 H   0  0  0  0  0  0
    1.9753   -0.2528    6.1797 H   0  0  0  0  0  0
    0.4278    1.6673    4.4361 H   0  0  0  0  0  0
    1.1881    1.9932    5.9881 H   0  0  0  0  0  0
   -1.4741    1.7168    5.9771 H   0  0  0  0  0  0
   -0.5943    0.7327    7.1485 H   0  0  0  0  0  0
  1  2  1  0  0  0
  2  3  1  0  0  0
  3  4  1  0  0  0
  4  5  1  0  0  0
  1  5  1  0  0  0
  1  6  1  0  0  0
  1  7  1  0  0  0
  2  8  1  0  0  0
  2  9  1  0  0  0
  3 10  1  0  0  0
  3 11  1  0  0  0
  4 12  1  0  0  0
  4 13  1  0  0  0
  5 14  1  0  0  0
  5 15  1  0  0  0
 16 17  1  0  0  0
 17 18  1  0  0  0
 18 19  1  0  0  0
 19 20  1  0  0  0
 16 20  1  0  0  0
 16 21  1  0  0  0
 16 22  1  0  0  0
 17 23  1  0  0  0
 17 24  1  0  0  0
 18 25  1  0  0  0
 18 26  1  0  0  0
 19 27  1  0  0  0
 19 28  1  0  0  0
 20 29  1  0  0  0
 20 30  1  0  0  0
M  END
$$$$
