


 30 30  0  0  1  0            999 V2000
    0.9569   -0.8918    1.1420 C   0  0  0  0  0  0
    0.9909    0.6585    1.1455 C   0  0  0  0  0  0
   -0.4794    1.1023    1.1039 C   0  0  0  0  0  0
   -1.1821   -0.0528    0.3934 C   0  0  0  0  0  0
   -0.5307   -1.2749    1.0393 C   0  0  0  0  0  0
    1.5046   -1.2784    0.2834 H   0  0  0  0  0  0
    1.4214   -1.3148    2.0310 H   0  0  0  0  0  0
    1.5106    1.0231    0.2600 H   0  0  0  0  0  0
    1.5163    1.0598    2.0105 H   0  0  0  0  0  0
   -0.6163    2.0649    0.6136 H   0  0  0  0  0  0
   -0.8747    1.1891    2.1181 H   0  0  0  0  0  0
   -0.9489   -0.0268   -0.6738 H   0  0  0  0  0  0
   -2.2657   -0.0336    0.5013 H   0  0  0  0  0  0
   -0.6904   -2.1970    0.4830 H   0  0  0  0  0  0
   -0.9509   -1.4154    2.0368 H   0  0  0  0  0  0
   -1.1352   -0.3903    4.9109 C   0  0  0  0  0  0
    0.1784   -1.1859    4.8632 C   0  0  0  0  0  0
    1.3078   -0.1231    4.8638 C   0  0  0  0  0  0
    0.5976    1.2385    4.9716 C   0  0  0  0  0  0
   -0.7445    0.9040    5.6214 C   0  0  0  0  0  0
   -1.4683   -0.1536    3.8984 H   0  0  0  0  0  0
   -1.9399   -0.9334    5.4039 H   0  0  0  0  0  0
    0.2284   -1.8436    3.9970 H   0  0  0  0  0  0
    0.2587   -1.8172    5.7476 H   0  0  0  0  0  0
    1.9290   -0.1838    3.9719 H   0  0  0  0  0  0
    1.9652   -0.2730    5.7192 H   0  0  0  0  0  0
    0.4177    1.6470    3.9756 H   0  0  0  0  0  0
    1.1780    1.9729    5.5276 H   0  0  0  0  0  0
   -1.4841    1.6966    5.5166 H   0  0  0  0  0  0
   -0.6044    0.7124    6.6880 H   0  0  0  0  0  0
  1  2  1  0  0  0
  2  3  1  0  0  0
  3  4  1  0  0  0
  4  5  1  0  0  0
  1  5  1  0  0  0
  1  6  1  0  0  0
  1  7  1  0  0  0
  2  8  1  0  0  0
  2  9  1  0  0  0
  3 10  1  0  0  0
  3 11  1  0  0  0
  4 12  1  0  0  0
  4 13  1  0  0  0
  5 14  1  0  0  0
  5 15  1  0  0  0
 16 17  1  0  0  0
 17 18  1  0  0  0
 18 19  1  0  0  0
 19 20  1  0  0  0
 16 20  1  0  0  0
 16 21  1  0  0  0
 16 22  1  0  0  0
 17 23  1  0  0  0
 17 24  1  0  0  0
 18 25  1  0  0  0
 18 26  1  0  0  0
 19 27  1  0  0  0
 19 28  1  0  0  0
 20 29  1  0  0  0
 20 30  1  0  0  0
M  END
$$$$
