


 30 30  0  0  1  0            999 V2000
    0.9569   -0.8918    1.1420 C   0  0  0  0  0  0
    0.9909    0.6585    1.1455 C   0  0  0  0  0  0
   -0.4794    1.1023    1.1039 C   0  0  0  0  0  0
   -1.1821   -0.0528    0.3934 C   0  0  0  0  0  0
   -0.5307   -1.2749    1.0393 C   0  0  0  0  0  0
    1.5046   -1.2784    0.2834 H   0  0  0  0  0  0
    1.4214   -1.3148    2.0310 H   0  0  0  0  0  0
    1.5106    1.0231    0.2600 H   0  0  0  0  0  0
    1.5163    1.0598    2.0105 H   0  0  0  0  0  0
   -0.6163    2.0649    0.6136 H   0  0  0  0  0  0
   -0.8747    1.1891    2.1181 H   0  0  0  0  0  0
   -0.9489   -0.0268   -0.6738 H   0  0  0  0  0  0
   -2.2657   -0.0336    0.5013 H   0  0  0  0  0  0
   -0.6904   -2.1970    0.4830 H   0  0  0  0  0  0
   -0.9509   -1.4154    2.0368 H   0  0  0  0  0  0
   -1.1318   -0.3835    5.0653 C   0  0  0  0  0  0
    0.1818   -1.1790    5.0176 C   0  0  0  0  0  0
    1.3111   -0.1164    5.0182 C   0  0  0  0  0  0
    0.6010    1.2453    5.1260 C   0  0  0  0  0  0
   -0.7411    0.9108    5.7758 C   0  0  0  0  0  0
   -1.4649   -0.1468    4.0528 H   0  0  0  0  0  0
   -1.9366   -0.9266    5.5583 H   0  0  0  0  0  0
    0.2318   -1.8368    4.1514 H   0  0  0  0  0  0
    0.2621   -1.8104    5.9020 H   0  0  0  0  0  0
    1.9324   -0.1770    4.1263 H   0  0  0  0  0  0
    1.9685   -0.2662    5.8736 H   0  0  0  0  0  0
    0.4211    1.6538    4.1300 H   0  0  0  0  0  0
    1.1813    1.9797    5.6820 H   0  0  0  0  0  0
   -1.4807    1.7034    5.6710 H   0  0  0  0  0  0
   -0.6010    0.7192    6.8424 H   0  0  0  0  0  0
  1  2  1  0  0  0
  2  3  1  0  0  0
  3  4  1  0  0  0
  4  5  1  0  0  0
  1  5  1  0  0  0
  1  6  1  0  0  0
  1  7  1  0  0  0
  2  8  1  0  0  0
  2  9  1  0  0  0
  3 10  1  0  0  0
  3 11  1  0  0  0
  4 12  1  0  0  0
  4 13  1  0  0  0
  5 14  1  0  0  0
  5 15  1  0  0  0
 16 17  1  0  0  0
 17 18  1  0  0  0
 18 19  1  0  0  0
 19 20  1  0  0  0
 16 20  1  0  0  0
 16 21  1  0  0  0
 16 22  1  0  0  0
 17 23  1  0  0  0
 17 24  1  0  0  0
 18 25  1  0  0  0
 18 26  1  0  0  0
 19 27  1  0  0  0
 19 28  1  0  0  0
 20 29  1  0  0  0
 20 30  1  0  0  0
M  END
$$$$
