


 30 30  0  0  1  0            999 V2000
    0.9569   -0.8918    1.1420 C   0  0  0  0  0  0
    0.9909    0.6585    1.1455 C   0  0  0  0  0  0
   -0.4794    1.1023    1.1039 C   0  0  0  0  0  0
   -1.1821   -0.0528    0.3934 C   0  0  0  0  0  0
   -0.5307   -1.2749    1.0393 C   0  0  0  0  0  0
    1.5046   -1.2784    0.2834 H   0  0  0  0  0  0
    1.4214   -1.3148    2.0310 H   0  0  0  0  0  0
    1.5106    1.0231    0.2600 H   0  0  0  0  0  0
    1.5163    1.0598    2.0105 H   0  0  0  0  0  0
   -0.6163    2.0649    0.6136 H   0  0  0  0  0  0
   -0.8747    1.1891    2.1181 H   0  0  0  0  0  0
   -0.9489   -0.0268   -0.6738 H   0  0  0  0  0  0
   -2.2657   -0.0336    0.5013 H   0  0  0  0  0  0
   -0.6904   -2.1970    0.4830 H   0  0  0  0  0  0
   -0.9509   -1.4154    2.0368 H   0  0  0  0  0  0
   -1.1156   -0.3509    5.8053 C   0  0  0  0  0  0
    0.1980   -1.1465    5.7575 C   0  0  0  0  0  0
    1.3274   -0.0838    5.7581 C   0  0  0  0  0  0
    0.6172    1.2779    5.8660 C   0  0  0  0  0  0
   -0.7249    0.9434    6.5158 C   0  0  0  0  0  0
   -1.4487   -0.1142    4.7927 H   0  0  0  0  0  0
   -1.9204   -0.8940    6.2983 H   0  0  0  0  0  0
    0.2480   -1.8042    4.8914 H   0  0  0  0  0  0
    0.2783   -1.7778    6.6419 H   0  0  0  0  0  0
    1.9486   -0.1444    4.8662 H   0  0  0  0  0  0
    1.9848   -0.2336    6.6135 H   0  0  0  0  0  0
    0.4373    1.6864    4.8700 H   0  0  0  0  0  0
    1.1976    2.0123    6.4219 H   0  0  0  0  0  0
   -1.4646    1.7359    6.4109 H   0  0  0  0  0  0
   -0.5848    0.7518    7.5823 H   0  0  0  0  0  0
  1  2  1  0  0  0
  2  3  1  0  0  0
  3  4  1  0  0  0
  4  5  1  0  0  0
  1  5  1  0  0  0
  1  6  1  0  0  0
  1  7  1  0  0  0
  2  8  1  0  0  0
  2  9  1  0  0  0
  3 10  1  0  0  0
  3 11  1  0  0  0
  4 12  1  0  0  0
  4 13  1  0  0  0
  5 14  1  0  0  0
  5 15  1  0  0  0
 16 17  1  0  0  0
 17 18  1  0  0  0
 18 19  1  0  0  0
 19 20  1  0  0  0
 16 20  1  0  0  0
 16 21  1  0  0  0
 16 22  1  0  0  0
 17 23  1  0  0  0
 17 24  1  0  0  0
 18 25  1  0  0  0
 18 26  1  0  0  0
 19 27  1  0  0  0
 19 28  1  0  0  0
 20 29  1  0  0  0
 20 30  1  0  0  0
M  END
$$$$
