


 30 30  0  0  1  0            999 V2000
    0.9569   -0.8918    1.1420 C   0  0  0  0  0  0
    0.9909    0.6585    1.1455 C   0  0  0  0  0  0
   -0.4794    1.1023    1.1039 C   0  0  0  0  0  0
   -1.1821   -0.0528    0.3934 C   0  0  0  0  0  0
   -0.5307   -1.2749    1.0393 C   0  0  0  0  0  0
    1.5046   -1.2784    0.2834 H   0  0  0  0  0  0
    1.4214   -1.3148    2.0310 H   0  0  0  0  0  0
    1.5106    1.0231    0.2600 H   0  0  0  0  0  0
    1.5163    1.0598    2.0105 H   0  0  0  0  0  0
   -0.6163    2.0649    0.6136 H   0  0  0  0  0  0
   -0.8747    1.1891    2.1181 H   0  0  0  0  0  0
   -0.9489   -0.0268   -0.6738 H   0  0  0  0  0  0
   -2.2657   -0.0336    0.5013 H   0  0  0  0  0  0
   -0.6904   -2.1970    0.4830 H   0  0  0  0  0  0
   -0.9509   -1.4154    2.0368 H   0  0  0  0  0  0
   -1.1284   -0.3767    5.2206 C   0  0  0  0  0  0
    0.1852   -1.1722    5.1728 C   0  0  0  0  0  0
    1.3145   -0.1095    5.1734 C   0  0  0  0  0  0
    0.6044    1.2522    5.2813 C   0  0  0  0  0  0
   -0.7377    0.9177    5.9311 C   0  0  0  0  0  0
   -1.4615   -0.1400    4.2080 H   0  0  0  0  0  0
   -1.9332   -0.9198    5.7136 H   0  0  0  0  0  0
    0.2352   -1.8300    4.3067 H   0  0  0  0  0  0
    0.2655   -1.8036    6.0572 H   0  0  0  0  0  0
    1.9358   -0.1702    4.2816 H   0  0  0  0  0  0
    1.9720   -0.2594    6.0288 H   0  0  0  0  0  0
    0.4245    1.6607    4.2853 H   0  0  0  0  0  0
    1.1847    1.9866    5.8373 H   0  0  0  0  0  0
   -1.4773    1.7102    5.8262 H   0  0  0  0  0  0
   -0.5976    0.7261    6.9977 H   0  0  0  0  0  0
  1  2  1  0  0  0
  2  3  1  0  0  0
  3  4  1  0  0  0
  4  5  1  0  0  0
  1  5  1  0  0  0
  1  6  1  0  0  0
  1  7  1  0  0  0
  2  8  1  0  0  0
  2  9  1  0  0  0
  3 10  1  0  0  0
  3 11  1  0  0  0
  4 12  1  0  0  0
  4 13  1  0  0  0
  5 14  1  0  0  0
  5 15  1  0  0  0
 16 17  1  0  0  0
 17 18  1  0  0  0
 18 19  1  0  0  0
 19 20  1  0  0  0
 16 20  1  0  0  0
 16 21  1  0  0  0
 16 22  1  0  0  0
 17 23  1  0  0  0
 17 24  1  0  0  0
 18 25  1  0  0  0
 18 26  1  0  0  0
 19 27  1  0  0  0
 19 28  1  0  0  0
 20 29  1  0  0  0
 20 30  1  0  0  0
M  END
$$$$
