


 30 30  0  0  1  0            999 V2000
    0.9569   -0.8918    1.1420 C   0  0  0  0  0  0
    0.9909    0.6585    1.1455 C   0  0  0  0  0  0
   -0.4794    1.1023    1.1039 C   0  0  0  0  0  0
   -1.1821   -0.0528    0.3934 C   0  0  0  0  0  0
   -0.5307   -1.2749    1.0393 C   0  0  0  0  0  0
    1.5046   -1.2784    0.2834 H   0  0  0  0  0  0
    1.4214   -1.3148    2.0310 H   0  0  0  0  0  0
    1.5106    1.0231    0.2600 H   0  0  0  0  0  0
    1.5163    1.0598    2.0105 H   0  0  0  0  0  0
   -0.6163    2.0649    0.6136 H   0  0  0  0  0  0
   -0.8747    1.1891    2.1181 H   0  0  0  0  0  0
   -0.9489   -0.0268   -0.6738 H   0  0  0  0  0  0
   -2.2657   -0.0336    0.5013 H   0  0  0  0  0  0
   -0.6904   -2.1970    0.4830 H   0  0  0  0  0  0
   -0.9509   -1.4154    2.0368 H   0  0  0  0  0  0
   -1.1006   -0.3208    6.4904 C   0  0  0  0  0  0
    0.2130   -1.1163    6.4427 C   0  0  0  0  0  0
    1.3424   -0.0536    6.4433 C   0  0  0  0  0  0
    0.6322    1.3081    6.5511 C   0  0  0  0  0  0
   -0.7099    0.9736    7.2009 C   0  0  0  0  0  0
   -1.4337   -0.0841    5.4778 H   0  0  0  0  0  0
   -1.9054   -0.8639    6.9834 H   0  0  0  0  0  0
    0.2630   -1.7740    5.5765 H   0  0  0  0  0  0
    0.2933   -1.7477    7.3271 H   0  0  0  0  0  0
    1.9636   -0.1143    5.5514 H   0  0  0  0  0  0
    1.9998   -0.2035    7.2987 H   0  0  0  0  0  0
    0.4523    1.7166    5.5551 H   0  0  0  0  0  0
    1.2126    2.0425    7.1071 H   0  0  0  0  0  0
   -1.4495    1.7661    7.0961 H   0  0  0  0  0  0
   -0.5698    0.7819    8.2675 H   0  0  0  0  0  0
  1  2  1  0  0  0
  2  3  1  0  0  0
  3  4  1  0  0  0
  4  5  1  0  0  0
  1  5  1  0  0  0
  1  6  1  0  0  0
  1  7  1  0  0  0
  2  8  1  0  0  0
  2  9  1  0  0  0
  3 10  1  0  0  0
  3 11  1  0  0  0
  4 12  1  0  0  0
  4 13  1  0  0  0
  5 14  1  0  0  0
  5 15  1  0  0  0
 16 17  1  0  0  0
 17 18  1  0  0  0
 18 19  1  0  0  0
 19 20  1  0  0  0
 16 20  1  0  0  0
 16 21  1  0  0  0
 16 22  1  0  0  0
 17 23  1  0  0  0
 17 24  1  0  0  0
 18 25  1  0  0  0
 18 26  1  0  0  0
 19 27  1  0  0  0
 19 28  1  0  0  0
 20 29  1  0  0  0
 20 30  1  0  0  0
M  END
$$$$
