


 30 30  0  0  1  0            999 V2000
    0.9569   -0.8918    1.1420 C   0  0  0  0  0  0
    0.9909    0.6585    1.1455 C   0  0  0  0  0  0
   -0.4794    1.1023    1.1039 C   0  0  0  0  0  0
   -1.1821   -0.0528    0.3934 C   0  0  0  0  0  0
   -0.5307   -1.2749    1.0393 C   0  0  0  0  0  0
    1.5046   -1.2784    0.2834 H   0  0  0  0  0  0
    1.4214   -1.3148    2.0310 H   0  0  0  0  0  0
    1.5106    1.0231    0.2600 H   0  0  0  0  0  0
    1.5163    1.0598    2.0105 H   0  0  0  0  0  0
   -0.6163    2.0649    0.6136 H   0  0  0  0  0  0
   -0.8747    1.1891    2.1181 H   0  0  0  0  0  0
   -0.9489   -0.0268   -0.6738 H   0  0  0  0  0  0
   -2.2657   -0.0336    0.5013 H   0  0  0  0  0  0
   -0.6904   -2.1970    0.4830 H   0  0  0  0  0  0
   -0.9509   -1.4154    2.0368 H   0  0  0  0  0  0
   -1.0720   -0.2634    7.7938 C   0  0  0  0  0  0
    0.2416   -1.0589    7.7460 C   0  0  0  0  0  0
    1.3709    0.0038    7.7466 C   0  0  0  0  0  0
    0.6607    1.3655    7.8545 C   0  0  0  0  0  0
   -0.6813    1.0310    8.5043 C   0  0  0  0  0  0
   -1.4052   -0.0267    6.7812 H   0  0  0  0  0  0
   -1.8768   -0.8065    8.2868 H   0  0  0  0  0  0
    0.2915   -1.7167    6.8799 H   0  0  0  0  0  0
    0.3219   -1.6903    8.6304 H   0  0  0  0  0  0
    1.9922   -0.0569    6.8548 H   0  0  0  0  0  0
    2.0283   -0.1461    8.6020 H   0  0  0  0  0  0
    0.4809    1.7739    6.8585 H   0  0  0  0  0  0
    1.2411    2.0998    8.4105 H   0  0  0  0  0  0
   -1.4210    1.8235    8.3994 H   0  0  0  0  0  0
   -0.5413    0.8393    9.5709 H   0  0  0  0  0  0
  1  2  1  0  0  0
  2  3  1  0  0  0
  3  4  1  0  0  0
  4  5  1  0  0  0
  1  5  1  0  0  0
  1  6  1  0  0  0
  1  7  1  0  0  0
  2  8  1  0  0  0
  2  9  1  0  0  0
  3 10  1  0  0  0
  3 11  1  0  0  0
  4 12  1  0  0  0
  4 13  1  0  0  0
  5 14  1  0  0  0
  5 15  1  0  0  0
 16 17  1  0  0  0
 17 18  1  0  0  0
 18 19  1  0  0  0
 19 20  1  0  0  0
 16 20  1  0  0  0
 16 21  1  0  0  0
 16 22  1  0  0  0
 17 23  1  0  0  0
 17 24  1  0  0  0
 18 25  1  0  0  0
 18 26  1  0  0  0
 19 27  1  0  0  0
 19 28  1  0  0  0
 20 29  1  0  0  0
 20 30  1  0  0  0
M  END
$$$$
