


 24 24  0  0  1  0            999 V2000
    0.9206    2.6111   -0.6260 O   0  0  0  0  0  0
    1.3090    1.4575   -0.5207 C   0  0  0  0  0  0
    1.7145    0.5919   -1.6125 C   0  0  0  0  0  0
    2.0257   -0.6972   -1.3644 C   0  0  0  0  0  0
    2.0114   -1.2132   -0.0981 N   0  0  0  0  0  0
    2.1295   -2.2015    0.0568 H   0  0  0  0  0  0
    1.6459   -0.4852    1.0187 C   0  0  0  0  0  0
    1.5611   -0.9718    2.1298 O   0  0  0  0  0  0
    1.3769    0.8397    0.7346 N   0  0  0  0  0  0
    1.0518    1.3862    1.5234 H   0  0  0  0  0  0
    1.7273    0.9908   -2.6120 H   0  0  0  0  0  0
    2.2975   -1.3911   -2.1456 H   0  0  0  0  0  0
   -0.6454   -2.5636   -0.6260 O   0  0  0  0  0  0
   -1.0338   -1.4100   -0.5207 C   0  0  0  0  0  0
   -1.4394   -0.5444   -1.6125 C   0  0  0  0  0  0
   -1.7506    0.7447   -1.3644 C   0  0  0  0  0  0
   -1.7363    1.2607   -0.0981 N   0  0  0  0  0  0
   -1.8543    2.2490    0.0568 H   0  0  0  0  0  0
   -1.3708    0.5327    1.0187 C   0  0  0  0  0  0
   -1.2860    1.0193    2.1298 O   0  0  0  0  0  0
   -1.1018   -0.7922    0.7346 N   0  0  0  0  0  0
   -0.7767   -1.3387    1.5234 H   0  0  0  0  0  0
   -1.4521   -0.9433   -2.6120 H   0  0  0  0  0  0
   -2.0224    1.4386   -2.1456 H   0  0  0  0  0  0
  1  2  2  0  0  0
  2  3  1  0  0  0
  3  4  2  0  0  0
  4  5  1  0  0  0
  5  6  1  0  0  0
  5  7  1  0  0  0
  7  8  2  0  0  0
  7  9  1  0  0  0
  9 10  1  0  0  0
  2  9  1  0  0  0
  3 11  1  0  0  0
  4 12  1  0  0  0
 13 14  2  0  0  0
 14 15  1  0  0  0
 15 16  2  0  0  0
 16 17  1  0  0  0
 17 18  1  0  0  0
 17 19  1  0  0  0
 19 20  2  0  0  0
 19 21  1  0  0  0
 21 22  1  0  0  0
 14 21  1  0  0  0
 15 23  1  0  0  0
 16 24  1  0  0  0
M  END
$$$$
