


 24 24  0  0  1  0            999 V2000
   -0.5941   -2.2535    0.0026 O   0  0  0  0  0  0
   -1.2968   -1.2404    0.0015 C   0  0  0  0  0  0
   -2.7436   -1.2623    0.0005 C   0  0  0  0  0  0
   -3.4220   -0.0959   -0.0009 C   0  0  0  0  0  0
   -2.7748    1.1054   -0.0014 N   0  0  0  0  0  0
   -3.2838    1.9739   -0.0025 H   0  0  0  0  0  0
   -1.3915    1.2370   -0.0005 C   0  0  0  0  0  0
   -0.8398    2.3170   -0.0010 O   0  0  0  0  0  0
   -0.7300    0.0228    0.0009 N   0  0  0  0  0  0
    0.2984    0.0740    0.0016 H   0  0  0  0  0  0
   -3.2496   -2.2118    0.0008 H   0  0  0  0  0  0
   -4.5009   -0.0492   -0.0018 H   0  0  0  0  0  0
    6.3957   -2.0583   -0.0018 O   0  0  0  0  0  0
    5.1863   -2.2100   -0.0010 C   0  0  0  0  0  0
    4.4720   -3.4722   -0.0015 C   0  0  0  0  0  0
    3.1219   -3.4760   -0.0005 C   0  0  0  0  0  0
    2.3839   -2.3251    0.0009 N   0  0  0  0  0  0
    1.3575   -2.3466    0.0016 H   0  0  0  0  0  0
    2.9566   -1.0805    0.0015 C   0  0  0  0  0  0
    2.3063   -0.0393    0.0027 O   0  0  0  0  0  0
    4.3302   -1.0954    0.0005 N   0  0  0  0  0  0
    4.7775   -0.1888    0.0009 H   0  0  0  0  0  0
    5.0386   -4.3872   -0.0026 H   0  0  0  0  0  0
    2.5449   -4.3890   -0.0009 H   0  0  0  0  0  0
  1  2  2  0  0  0
  2  3  1  0  0  0
  3  4  2  0  0  0
  4  5  1  0  0  0
  5  6  1  0  0  0
  5  7  1  0  0  0
  7  8  2  0  0  0
  7  9  1  0  0  0
  9 10  1  0  0  0
  2  9  1  0  0  0
  3 11  1  0  0  0
  4 12  1  0  0  0
 13 14  2  0  0  0
 14 15  1  0  0  0
 15 16  2  0  0  0
 16 17  1  0  0  0
 17 18  1  0  0  0
 17 19  1  0  0  0
 19 20  2  0  0  0
 19 21  1  0  0  0
 21 22  1  0  0  0
 14 21  1  0  0  0
 15 23  1  0  0  0
 16 24  1  0  0  0
M  END
$$$$
