


 17 16  0  0  1  0            999 V2000
    0.0163    0.6664    3.1166 C   0  0  0  0  0  0
    0.0166   -0.6663    3.1167 C   0  0  0  0  0  0
    0.9267    1.2259    2.9575 H   0  0  0  0  0  0
   -0.8933    1.2288    3.2736 H   0  0  0  0  0  0
    0.9273   -1.2254    2.9577 H   0  0  0  0  0  0
   -0.8927   -1.2291    3.2738 H   0  0  0  0  0  0
   -0.7097   -1.1931    0.0067 C   0  0  0  0  0  0
   -1.4216    0.0001   -0.0408 C   0  0  0  0  0  0
   -0.7094    1.1932    0.0065 C   0  0  0  0  0  0
    0.6797    1.1400    0.0919 C   0  0  0  0  0  0
    1.3814   -0.0002    0.1315 N   0  0  0  0  0  0
    0.6794   -1.1402    0.0921 C   0  0  0  0  0  0
   -1.2141   -2.1486   -0.0253 H   0  0  0  0  0  0
   -2.5007    0.0003   -0.1092 H   0  0  0  0  0  0
   -1.2135    2.1488   -0.0255 H   0  0  0  0  0  0
    1.2593    2.0545    0.1255 H   0  0  0  0  0  0
    1.2587   -2.0550    0.1259 H   0  0  0  0  0  0
  1  2  2  0  0  0
  1  3  1  0  0  0
  1  4  1  0  0  0
  2  5  1  0  0  0
  2  6  1  0  0  0
  7  8  1  0  0  0
  8  9  2  0  0  0
  9 10  1  0  0  0
 10 11  2  0  0  0
 11 12  1  0  0  0
  7 12  2  0  0  0
  7 13  1  0  0  0
  8 14  1  0  0  0
  9 15  1  0  0  0
 10 16  1  0  0  0
 12 17  1  0  0  0
M  END
$$$$
