


 18 16  0  0  1  0            999 V2000
   -0.0198    0.5164    3.9479 C   0  0  0  0  0  0
    0.7487   -0.5706    4.0177 C   0  0  0  0  0  0
   -0.0247    1.2586    4.7338 H   0  0  0  0  0  0
   -0.6683    0.6842    3.0993 H   0  0  0  0  0  0
    1.3940   -0.7424    4.8679 H   0  0  0  0  0  0
    0.7436   -1.3058    3.2255 H   0  0  0  0  0  0
   -2.1500    0.2660    0.0950 C   0  0  0  0  0  0
   -0.7735    0.7025    0.0221 N   0  0  0  0  0  0
    0.2618   -0.1329    0.3146 C   0  0  0  0  0  0
    0.0993   -1.3096    0.6118 O   0  0  0  0  0  0
    1.6297    0.5030    0.2701 C   0  0  0  0  0  0
   -2.1447   -0.8194    0.1009 H   0  0  0  0  0  0
   -2.6405    0.6158    1.0036 H   0  0  0  0  0  0
   -2.7077    0.6208   -0.7683 H   0  0  0  0  0  0
   -0.5690    1.6666   -0.1658 H   0  0  0  0  0  0
    1.6416    1.4592   -0.2481 H   0  0  0  0  0  0
    2.3153   -0.1836   -0.2176 H   0  0  0  0  0  0
    1.9698    0.6494    1.2940 H   0  0  0  0  0  0
  1  2  2  0  0  0
  1  3  1  0  0  0
  1  4  1  0  0  0
  2  5  1  0  0  0
  2  6  1  0  0  0
  7  8  1  0  0  0
  8  9  1  0  0  0
  9 10  2  0  0  0
  9 11  1  0  0  0
  7 12  1  0  0  0
  7 13  1  0  0  0
  7 14  1  0  0  0
  8 15  1  0  0  0
 11 16  1  0  0  0
 11 17  1  0  0  0
 11 18  1  0  0  0
M  END
$$$$
