


 18 16  0  0  1  0            999 V2000
   -0.0583    0.5188    3.6933 C   0  0  0  0  0  0
    0.7102   -0.5682    3.7631 C   0  0  0  0  0  0
   -0.0632    1.2609    4.4792 H   0  0  0  0  0  0
   -0.7068    0.6865    2.8446 H   0  0  0  0  0  0
    1.3555   -0.7400    4.6132 H   0  0  0  0  0  0
    0.7051   -1.3034    2.9708 H   0  0  0  0  0  0
   -2.1500    0.2660    0.0950 C   0  0  0  0  0  0
   -0.7735    0.7025    0.0221 N   0  0  0  0  0  0
    0.2618   -0.1329    0.3146 C   0  0  0  0  0  0
    0.0993   -1.3096    0.6118 O   0  0  0  0  0  0
    1.6297    0.5030    0.2701 C   0  0  0  0  0  0
   -2.1447   -0.8194    0.1009 H   0  0  0  0  0  0
   -2.6405    0.6158    1.0036 H   0  0  0  0  0  0
   -2.7077    0.6208   -0.7683 H   0  0  0  0  0  0
   -0.5690    1.6666   -0.1658 H   0  0  0  0  0  0
    1.6416    1.4592   -0.2481 H   0  0  0  0  0  0
    2.3153   -0.1836   -0.2176 H   0  0  0  0  0  0
    1.9698    0.6494    1.2940 H   0  0  0  0  0  0
  1  2  2  0  0  0
  1  3  1  0  0  0
  1  4  1  0  0  0
  2  5  1  0  0  0
  2  6  1  0  0  0
  7  8  1  0  0  0
  8  9  1  0  0  0
  9 10  2  0  0  0
  9 11  1  0  0  0
  7 12  1  0  0  0
  7 13  1  0  0  0
  7 14  1  0  0  0
  8 15  1  0  0  0
 11 16  1  0  0  0
 11 17  1  0  0  0
 11 18  1  0  0  0
M  END
$$$$
