


 20 19  0  0  1  0            999 V2000
   -2.6114    1.2862    0.2774 C   0  0  0  0  0  0
   -1.1136    1.3270    0.2752 C   0  0  0  0  0  0
   -0.4671    2.3494    0.4615 O   0  0  0  0  0  0
   -0.5781    0.1369    0.0496 O   0  0  0  0  0  0
   -3.0066    2.2769    0.4658 H   0  0  0  0  0  0
   -2.9643    0.9153   -0.6820 H   0  0  0  0  0  0
   -2.9531    0.5918    1.0412 H   0  0  0  0  0  0
    0.4133    0.2033    0.0555 H   0  0  0  0  0  0
    6.4862    1.9223    0.3108 O   0  0  0  0  0  0
    5.2891    2.1406    0.3637 C   0  0  0  0  0  0
    4.6500    3.4200    0.6043 C   0  0  0  0  0  0
    3.3029    3.5000    0.6337 C   0  0  0  0  0  0
    2.4992    2.4093    0.4432 N   0  0  0  0  0  0
    1.4752    2.4793    0.4670 H   0  0  0  0  0  0
    2.9992    1.1591    0.2091 C   0  0  0  0  0  0
    2.2871    0.1696    0.0356 O   0  0  0  0  0  0
    4.3676    1.0925    0.1822 N   0  0  0  0  0  0
    4.7608    0.1771    0.0105 H   0  0  0  0  0  0
    5.2696    4.2870    0.7557 H   0  0  0  0  0  0
    2.7801    4.4285    0.8090 H   0  0  0  0  0  0
  1  2  1  0  0  0
  2  3  2  0  0  0
  2  4  1  0  0  0
  1  5  1  0  0  0
  1  6  1  0  0  0
  1  7  1  0  0  0
  4  8  1  0  0  0
  9 10  2  0  0  0
 10 11  1  0  0  0
 11 12  2  0  0  0
 12 13  1  0  0  0
 13 14  1  0  0  0
 13 15  1  0  0  0
 15 16  2  0  0  0
 15 17  1  0  0  0
 17 18  1  0  0  0
 10 17  1  0  0  0
 11 19  1  0  0  0
 12 20  1  0  0  0
M  END
$$$$
