


 20 19  0  0  1  0            999 V2000
   -2.6114    1.2862    0.2774 C   0  0  0  0  0  0
   -1.1136    1.3270    0.2752 C   0  0  0  0  0  0
   -0.4671    2.3494    0.4615 O   0  0  0  0  0  0
   -0.5781    0.1369    0.0496 O   0  0  0  0  0  0
   -3.0066    2.2769    0.4658 H   0  0  0  0  0  0
   -2.9643    0.9153   -0.6820 H   0  0  0  0  0  0
   -2.9531    0.5918    1.0412 H   0  0  0  0  0  0
    0.4133    0.2033    0.0555 H   0  0  0  0  0  0
    7.1680    1.9395    0.3082 O   0  0  0  0  0  0
    5.9708    2.1578    0.3611 C   0  0  0  0  0  0
    5.3318    3.4372    0.6017 C   0  0  0  0  0  0
    3.9847    3.5172    0.6311 C   0  0  0  0  0  0
    3.1810    2.4265    0.4407 N   0  0  0  0  0  0
    2.1569    2.4965    0.4645 H   0  0  0  0  0  0
    3.6809    1.1763    0.2065 C   0  0  0  0  0  0
    2.9689    0.1868    0.0330 O   0  0  0  0  0  0
    5.0493    1.1097    0.1796 N   0  0  0  0  0  0
    5.4425    0.1943    0.0079 H   0  0  0  0  0  0
    5.9513    4.3042    0.7532 H   0  0  0  0  0  0
    3.4619    4.4457    0.8064 H   0  0  0  0  0  0
  1  2  1  0  0  0
  2  3  2  0  0  0
  2  4  1  0  0  0
  1  5  1  0  0  0
  1  6  1  0  0  0
  1  7  1  0  0  0
  4  8  1  0  0  0
  9 10  2  0  0  0
 10 11  1  0  0  0
 11 12  2  0  0  0
 12 13  1  0  0  0
 13 14  1  0  0  0
 13 15  1  0  0  0
 15 16  2  0  0  0
 15 17  1  0  0  0
 17 18  1  0  0  0
 10 17  1  0  0  0
 11 19  1  0  0  0
 12 20  1  0  0  0
M  END
$$$$
