


 20 19  0  0  1  0            999 V2000
   -2.6114    1.2862    0.2774 C   0  0  0  0  0  0
   -1.1136    1.3270    0.2752 C   0  0  0  0  0  0
   -0.4671    2.3494    0.4615 O   0  0  0  0  0  0
   -0.5781    0.1369    0.0496 O   0  0  0  0  0  0
   -3.0066    2.2769    0.4658 H   0  0  0  0  0  0
   -2.9643    0.9153   -0.6820 H   0  0  0  0  0  0
   -2.9531    0.5918    1.0412 H   0  0  0  0  0  0
    0.4133    0.2033    0.0555 H   0  0  0  0  0  0
    6.3156    1.9180    0.3114 O   0  0  0  0  0  0
    5.1185    2.1363    0.3643 C   0  0  0  0  0  0
    4.4794    3.4157    0.6049 C   0  0  0  0  0  0
    3.1323    3.4957    0.6343 C   0  0  0  0  0  0
    2.3286    2.4051    0.4439 N   0  0  0  0  0  0
    1.3046    2.4750    0.4677 H   0  0  0  0  0  0
    2.8286    1.1548    0.2097 C   0  0  0  0  0  0
    2.1165    0.1653    0.0362 O   0  0  0  0  0  0
    4.1970    1.0882    0.1829 N   0  0  0  0  0  0
    4.5902    0.1728    0.0111 H   0  0  0  0  0  0
    5.0990    4.2827    0.7564 H   0  0  0  0  0  0
    2.6095    4.4242    0.8096 H   0  0  0  0  0  0
  1  2  1  0  0  0
  2  3  2  0  0  0
  2  4  1  0  0  0
  1  5  1  0  0  0
  1  6  1  0  0  0
  1  7  1  0  0  0
  4  8  1  0  0  0
  9 10  2  0  0  0
 10 11  1  0  0  0
 11 12  2  0  0  0
 12 13  1  0  0  0
 13 14  1  0  0  0
 13 15  1  0  0  0
 15 16  2  0  0  0
 15 17  1  0  0  0
 17 18  1  0  0  0
 10 17  1  0  0  0
 11 19  1  0  0  0
 12 20  1  0  0  0
M  END
$$$$
