


 20 19  0  0  1  0            999 V2000
   -2.6114    1.2862    0.2774 C   0  0  0  0  0  0
   -1.1136    1.3270    0.2752 C   0  0  0  0  0  0
   -0.4671    2.3494    0.4615 O   0  0  0  0  0  0
   -0.5781    0.1369    0.0496 O   0  0  0  0  0  0
   -3.0066    2.2769    0.4658 H   0  0  0  0  0  0
   -2.9643    0.9153   -0.6820 H   0  0  0  0  0  0
   -2.9531    0.5918    1.0412 H   0  0  0  0  0  0
    0.4133    0.2033    0.0555 H   0  0  0  0  0  0
    6.4010    1.9201    0.3111 O   0  0  0  0  0  0
    5.2038    2.1384    0.3640 C   0  0  0  0  0  0
    4.5648    3.4179    0.6046 C   0  0  0  0  0  0
    3.2177    3.4979    0.6340 C   0  0  0  0  0  0
    2.4140    2.4072    0.4436 N   0  0  0  0  0  0
    1.3899    2.4771    0.4674 H   0  0  0  0  0  0
    2.9139    1.1570    0.2094 C   0  0  0  0  0  0
    2.2019    0.1675    0.0359 O   0  0  0  0  0  0
    4.2823    1.0903    0.1825 N   0  0  0  0  0  0
    4.6755    0.1749    0.0108 H   0  0  0  0  0  0
    5.1843    4.2848    0.7561 H   0  0  0  0  0  0
    2.6949    4.4263    0.8093 H   0  0  0  0  0  0
  1  2  1  0  0  0
  2  3  2  0  0  0
  2  4  1  0  0  0
  1  5  1  0  0  0
  1  6  1  0  0  0
  1  7  1  0  0  0
  4  8  1  0  0  0
  9 10  2  0  0  0
 10 11  1  0  0  0
 11 12  2  0  0  0
 12 13  1  0  0  0
 13 14  1  0  0  0
 13 15  1  0  0  0
 15 16  2  0  0  0
 15 17  1  0  0  0
 17 18  1  0  0  0
 10 17  1  0  0  0
 11 19  1  0  0  0
 12 20  1  0  0  0
M  END
$$$$
