


 20 19  0  0  1  0            999 V2000
   -2.6114    1.2862    0.2774 C   0  0  0  0  0  0
   -1.1136    1.3270    0.2752 C   0  0  0  0  0  0
   -0.4671    2.3494    0.4615 O   0  0  0  0  0  0
   -0.5781    0.1369    0.0496 O   0  0  0  0  0  0
   -3.0066    2.2769    0.4658 H   0  0  0  0  0  0
   -2.9643    0.9153   -0.6820 H   0  0  0  0  0  0
   -2.9531    0.5918    1.0412 H   0  0  0  0  0  0
    0.4133    0.2033    0.0555 H   0  0  0  0  0  0
    6.7419    1.9287    0.3098 O   0  0  0  0  0  0
    5.5448    2.1470    0.3627 C   0  0  0  0  0  0
    4.9057    3.4265    0.6033 C   0  0  0  0  0  0
    3.5586    3.5065    0.6327 C   0  0  0  0  0  0
    2.7549    2.4158    0.4423 N   0  0  0  0  0  0
    1.7309    2.4857    0.4661 H   0  0  0  0  0  0
    3.2548    1.1656    0.2081 C   0  0  0  0  0  0
    2.5428    0.1761    0.0346 O   0  0  0  0  0  0
    4.6233    1.0989    0.1812 N   0  0  0  0  0  0
    5.0165    0.1835    0.0095 H   0  0  0  0  0  0
    5.5253    4.2934    0.7548 H   0  0  0  0  0  0
    3.0358    4.4349    0.8080 H   0  0  0  0  0  0
  1  2  1  0  0  0
  2  3  2  0  0  0
  2  4  1  0  0  0
  1  5  1  0  0  0
  1  6  1  0  0  0
  1  7  1  0  0  0
  4  8  1  0  0  0
  9 10  2  0  0  0
 10 11  1  0  0  0
 11 12  2  0  0  0
 12 13  1  0  0  0
 13 14  1  0  0  0
 13 15  1  0  0  0
 15 16  2  0  0  0
 15 17  1  0  0  0
 17 18  1  0  0  0
 10 17  1  0  0  0
 11 19  1  0  0  0
 12 20  1  0  0  0
M  END
$$$$
