


 20 19  0  0  1  0            999 V2000
   -2.6114    1.2862    0.2774 C   0  0  0  0  0  0
   -1.1136    1.3270    0.2752 C   0  0  0  0  0  0
   -0.4671    2.3494    0.4615 O   0  0  0  0  0  0
   -0.5781    0.1369    0.0496 O   0  0  0  0  0  0
   -3.0066    2.2769    0.4658 H   0  0  0  0  0  0
   -2.9643    0.9153   -0.6820 H   0  0  0  0  0  0
   -2.9531    0.5918    1.0412 H   0  0  0  0  0  0
    0.4133    0.2033    0.0555 H   0  0  0  0  0  0
    8.0199    1.9610    0.3050 O   0  0  0  0  0  0
    6.8228    2.1793    0.3579 C   0  0  0  0  0  0
    6.1837    3.4587    0.5985 C   0  0  0  0  0  0
    4.8366    3.5387    0.6279 C   0  0  0  0  0  0
    4.0329    2.4481    0.4375 N   0  0  0  0  0  0
    3.0088    2.5180    0.4613 H   0  0  0  0  0  0
    4.5328    1.1978    0.2033 C   0  0  0  0  0  0
    3.8208    0.2083    0.0298 O   0  0  0  0  0  0
    5.9012    1.1312    0.1764 N   0  0  0  0  0  0
    6.2944    0.2158    0.0047 H   0  0  0  0  0  0
    6.8032    4.3257    0.7500 H   0  0  0  0  0  0
    4.3138    4.4672    0.8032 H   0  0  0  0  0  0
  1  2  1  0  0  0
  2  3  2  0  0  0
  2  4  1  0  0  0
  1  5  1  0  0  0
  1  6  1  0  0  0
  1  7  1  0  0  0
  4  8  1  0  0  0
  9 10  2  0  0  0
 10 11  1  0  0  0
 11 12  2  0  0  0
 12 13  1  0  0  0
 13 14  1  0  0  0
 13 15  1  0  0  0
 15 16  2  0  0  0
 15 17  1  0  0  0
 17 18  1  0  0  0
 10 17  1  0  0  0
 11 19  1  0  0  0
 12 20  1  0  0  0
M  END
$$$$
