


 20 19  0  0  1  0            999 V2000
   -2.6114    1.2862    0.2774 C   0  0  0  0  0  0
   -1.1136    1.3270    0.2752 C   0  0  0  0  0  0
   -0.4671    2.3494    0.4615 O   0  0  0  0  0  0
   -0.5781    0.1369    0.0496 O   0  0  0  0  0  0
   -3.0066    2.2769    0.4658 H   0  0  0  0  0  0
   -2.9643    0.9153   -0.6820 H   0  0  0  0  0  0
   -2.9531    0.5918    1.0412 H   0  0  0  0  0  0
    0.4133    0.2033    0.0555 H   0  0  0  0  0  0
    6.1452    1.9137    0.3121 O   0  0  0  0  0  0
    4.9481    2.1320    0.3650 C   0  0  0  0  0  0
    4.3090    3.4114    0.6055 C   0  0  0  0  0  0
    2.9619    3.4914    0.6349 C   0  0  0  0  0  0
    2.1582    2.4007    0.4445 N   0  0  0  0  0  0
    1.1341    2.4707    0.4683 H   0  0  0  0  0  0
    2.6581    1.1505    0.2104 C   0  0  0  0  0  0
    1.9461    0.1610    0.0369 O   0  0  0  0  0  0
    4.0265    1.0839    0.1835 N   0  0  0  0  0  0
    4.4197    0.1685    0.0118 H   0  0  0  0  0  0
    4.9285    4.2784    0.7570 H   0  0  0  0  0  0
    2.4391    4.4199    0.8102 H   0  0  0  0  0  0
  1  2  1  0  0  0
  2  3  2  0  0  0
  2  4  1  0  0  0
  1  5  1  0  0  0
  1  6  1  0  0  0
  1  7  1  0  0  0
  4  8  1  0  0  0
  9 10  2  0  0  0
 10 11  1  0  0  0
 11 12  2  0  0  0
 12 13  1  0  0  0
 13 14  1  0  0  0
 13 15  1  0  0  0
 15 16  2  0  0  0
 15 17  1  0  0  0
 17 18  1  0  0  0
 10 17  1  0  0  0
 11 19  1  0  0  0
 12 20  1  0  0  0
M  END
$$$$
