


 20 19  0  0  1  0            999 V2000
   -2.6114    1.2862    0.2774 C   0  0  0  0  0  0
   -1.1136    1.3270    0.2752 C   0  0  0  0  0  0
   -0.4671    2.3494    0.4615 O   0  0  0  0  0  0
   -0.5781    0.1369    0.0496 O   0  0  0  0  0  0
   -3.0066    2.2769    0.4658 H   0  0  0  0  0  0
   -2.9643    0.9153   -0.6820 H   0  0  0  0  0  0
   -2.9531    0.5918    1.0412 H   0  0  0  0  0  0
    0.4133    0.2033    0.0555 H   0  0  0  0  0  0
    6.2305    1.9158    0.3117 O   0  0  0  0  0  0
    5.0333    2.1341    0.3646 C   0  0  0  0  0  0
    4.3943    3.4136    0.6052 C   0  0  0  0  0  0
    3.0472    3.4936    0.6346 C   0  0  0  0  0  0
    2.2435    2.4029    0.4442 N   0  0  0  0  0  0
    1.2194    2.4729    0.4680 H   0  0  0  0  0  0
    2.7434    1.1527    0.2100 C   0  0  0  0  0  0
    2.0314    0.1632    0.0366 O   0  0  0  0  0  0
    4.1118    1.0860    0.1832 N   0  0  0  0  0  0
    4.5050    0.1706    0.0115 H   0  0  0  0  0  0
    5.0138    4.2805    0.7567 H   0  0  0  0  0  0
    2.5243    4.4220    0.8099 H   0  0  0  0  0  0
  1  2  1  0  0  0
  2  3  2  0  0  0
  2  4  1  0  0  0
  1  5  1  0  0  0
  1  6  1  0  0  0
  1  7  1  0  0  0
  4  8  1  0  0  0
  9 10  2  0  0  0
 10 11  1  0  0  0
 11 12  2  0  0  0
 12 13  1  0  0  0
 13 14  1  0  0  0
 13 15  1  0  0  0
 15 16  2  0  0  0
 15 17  1  0  0  0
 17 18  1  0  0  0
 10 17  1  0  0  0
 11 19  1  0  0  0
 12 20  1  0  0  0
M  END
$$$$
