


 18 17  0  0  1  0            999 V2000
    0.6558   -0.1168    3.2830 C   0  0  0  0  0  0
   -0.6558    0.1168    3.2830 C   0  0  0  0  0  0
    1.0472   -1.1239    3.2785 H   0  0  0  0  0  0
    1.3708    0.6933    3.2785 H   0  0  0  0  0  0
   -1.3708   -0.6933    3.2785 H   0  0  0  0  0  0
   -1.0472    1.1239    3.2785 H   0  0  0  0  0  0
    0.8355    1.1152    0.0214 C   0  0  0  0  0  0
    1.3833   -0.1662    0.0238 C   0  0  0  0  0  0
    0.5476   -1.2813    0.0217 C   0  0  0  0  0  0
   -0.8355   -1.1152    0.0214 C   0  0  0  0  0  0
   -1.3833    0.1662    0.0238 C   0  0  0  0  0  0
   -0.5476    1.2813    0.0217 C   0  0  0  0  0  0
    1.4843    1.9806    0.0195 H   0  0  0  0  0  0
    2.4571   -0.2952    0.0228 H   0  0  0  0  0  0
    0.9729   -2.2758    0.0198 H   0  0  0  0  0  0
   -1.4843   -1.9806    0.0195 H   0  0  0  0  0  0
   -2.4572    0.2952    0.0228 H   0  0  0  0  0  0
   -0.9729    2.2758    0.0198 H   0  0  0  0  0  0
  1  2  2  0  0  0
  1  3  1  0  0  0
  1  4  1  0  0  0
  2  5  1  0  0  0
  2  6  1  0  0  0
  7  8  1  0  0  0
  8  9  2  0  0  0
  9 10  1  0  0  0
 10 11  2  0  0  0
 11 12  1  0  0  0
  7 12  2  0  0  0
  7 13  1  0  0  0
  8 14  1  0  0  0
  9 15  1  0  0  0
 10 16  1  0  0  0
 11 17  1  0  0  0
 12 18  1  0  0  0
M  END
$$$$
