


 19 18  0  0  1  0            999 V2000
   -1.2474   -0.7646    5.6274 C   0  0  0  0  0  0
    0.1287   -0.3582    5.3500 N   0  0  0  0  0  0
   -1.4053   -0.7931    6.7040 H   0  0  0  0  0  0
   -2.0187   -0.1242    5.1873 H   0  0  0  0  0  0
   -1.4021   -1.7742    5.2518 H   0  0  0  0  0  0
    0.2633   -0.3142    4.3469 H   0  0  0  0  0  0
    0.2702    0.5870    5.6825 H   0  0  0  0  0  0
    0.6923    1.0883    0.3248 C   0  0  0  0  0  0
    1.3182   -0.1569    0.2869 C   0  0  0  0  0  0
    0.5580   -1.3219    0.3814 C   0  0  0  0  0  0
   -0.8275   -1.2414    0.5117 C   0  0  0  0  0  0
   -1.4534    0.0037    0.5484 C   0  0  0  0  0  0
   -0.6935    1.1684    0.4562 C   0  0  0  0  0  0
    1.2819    1.9920    0.2525 H   0  0  0  0  0  0
    2.3931   -0.2195    0.1884 H   0  0  0  0  0  0
    1.0439   -2.2876    0.3576 H   0  0  0  0  0  0
   -1.4167   -2.1453    0.5853 H   0  0  0  0  0  0
   -2.5282    0.0657    0.6498 H   0  0  0  0  0  0
   -1.1787    2.1344    0.4857 H   0  0  0  0  0  0
  1  2  1  0  0  0
  1  3  1  0  0  0
  1  4  1  0  0  0
  1  5  1  0  0  0
  2  6  1  0  0  0
  2  7  1  0  0  0
  8  9  1  0  0  0
  9 10  2  0  0  0
 10 11  1  0  0  0
 11 12  2  0  0  0
 12 13  1  0  0  0
  8 13  2  0  0  0
  8 14  1  0  0  0
  9 15  1  0  0  0
 10 16  1  0  0  0
 11 17  1  0  0  0
 12 18  1  0  0  0
 13 19  1  0  0  0
M  END
$$$$
