


 19 18  0  0  1  0            999 V2000
   -1.1014   -0.6295    4.1406 C   0  0  0  0  0  0
    0.2747   -0.2231    3.8632 N   0  0  0  0  0  0
   -1.2593   -0.6580    5.2172 H   0  0  0  0  0  0
   -1.8728    0.0109    3.7005 H   0  0  0  0  0  0
   -1.2562   -1.6391    3.7650 H   0  0  0  0  0  0
    0.4093   -0.1791    2.8601 H   0  0  0  0  0  0
    0.4161    0.7220    4.1957 H   0  0  0  0  0  0
    0.6923    1.0883    0.3248 C   0  0  0  0  0  0
    1.3182   -0.1569    0.2869 C   0  0  0  0  0  0
    0.5580   -1.3219    0.3814 C   0  0  0  0  0  0
   -0.8275   -1.2414    0.5117 C   0  0  0  0  0  0
   -1.4534    0.0037    0.5484 C   0  0  0  0  0  0
   -0.6935    1.1684    0.4562 C   0  0  0  0  0  0
    1.2819    1.9920    0.2525 H   0  0  0  0  0  0
    2.3931   -0.2195    0.1884 H   0  0  0  0  0  0
    1.0439   -2.2876    0.3576 H   0  0  0  0  0  0
   -1.4167   -2.1453    0.5853 H   0  0  0  0  0  0
   -2.5282    0.0657    0.6498 H   0  0  0  0  0  0
   -1.1787    2.1344    0.4857 H   0  0  0  0  0  0
  1  2  1  0  0  0
  1  3  1  0  0  0
  1  4  1  0  0  0
  1  5  1  0  0  0
  2  6  1  0  0  0
  2  7  1  0  0  0
  8  9  1  0  0  0
  9 10  2  0  0  0
 10 11  1  0  0  0
 11 12  2  0  0  0
 12 13  1  0  0  0
  8 13  2  0  0  0
  8 14  1  0  0  0
  9 15  1  0  0  0
 10 16  1  0  0  0
 11 17  1  0  0  0
 12 18  1  0  0  0
 13 19  1  0  0  0
M  END
$$$$
