


  7  5  0  0  1  0            999 V2000
   -1.0069   -0.0306   -0.0248 C   0  0  0  0  0  0
   -2.2187    0.0032    0.0026 C   0  0  0  0  0  0
    0.0590   -0.0609   -0.0494 H   0  0  0  0  0  0
   -3.2793    0.0335    0.0272 H   0  0  0  0  0  0
    2.1772   -0.1422   -0.1129 O   0  0  0  0  0  0
    2.7476   -0.7320    0.3842 H   0  0  0  0  0  0
    2.7492    0.2087   -0.7982 H   0  0  0  0  0  0
  1  2  3  0  0  0
  1  3  1  0  0  0
  2  4  1  0  0  0
  5  6  1  0  0  0
  5  7  1  0  0  0
M  END
$$$$
