


  7  5  0  0  1  0            999 V2000
   -1.0069   -0.0306   -0.0248 C   0  0  0  0  0  0
   -2.2187    0.0032    0.0026 C   0  0  0  0  0  0
    0.0590   -0.0609   -0.0494 H   0  0  0  0  0  0
   -3.2793    0.0335    0.0272 H   0  0  0  0  0  0
    4.5182   -0.2321   -0.1831 O   0  0  0  0  0  0
    5.0886   -0.8219    0.3140 H   0  0  0  0  0  0
    5.0902    0.1189   -0.8684 H   0  0  0  0  0  0
  1  2  3  0  0  0
  1  3  1  0  0  0
  2  4  1  0  0  0
  5  6  1  0  0  0
  5  7  1  0  0  0
M  END
$$$$
