


  7  5  0  0  1  0            999 V2000
   -1.0069   -0.0306   -0.0248 C   0  0  0  0  0  0
   -2.2187    0.0032    0.0026 C   0  0  0  0  0  0
    0.0590   -0.0609   -0.0494 H   0  0  0  0  0  0
   -3.2793    0.0335    0.0272 H   0  0  0  0  0  0
    2.2886   -0.1465   -0.1162 O   0  0  0  0  0  0
    2.8589   -0.7363    0.3808 H   0  0  0  0  0  0
    2.8606    0.2045   -0.8016 H   0  0  0  0  0  0
  1  2  3  0  0  0
  1  3  1  0  0  0
  2  4  1  0  0  0
  5  6  1  0  0  0
  5  7  1  0  0  0
M  END
$$$$
