


 29 28  0  0  1  0            999 V2000
    1.5533    0.6342    5.9511 C   0  0  0  0  0  0
    0.1070    0.4554    6.4060 C   0  0  0  0  0  0
    0.0526    0.4241    7.9309 C   0  0  0  0  0  0
   -0.4424   -0.8540    5.8457 C   0  0  0  0  0  0
   -0.7343    1.6200    5.8898 C   0  0  0  0  0  0
    1.9691    1.5675    6.3345 H   0  0  0  0  0  0
    2.1767   -0.1864    6.3099 H   0  0  0  0  0  0
    1.6139    0.6536    4.8621 H   0  0  0  0  0  0
   -0.9732    0.2967    8.2800 H   0  0  0  0  0  0
    0.6481   -0.4016    8.3234 H   0  0  0  0  0  0
    0.4409    1.3520    8.3538 H   0  0  0  0  0  0
   -1.4772   -1.0043    6.1584 H   0  0  0  0  0  0
    0.1441   -1.7030    6.2015 H   0  0  0  0  0  0
   -0.4136   -0.8545    4.7554 H   0  0  0  0  0  0
   -0.7128    1.6560    4.7998 H   0  0  0  0  0  0
   -1.7741    1.5163    6.2043 H   0  0  0  0  0  0
   -0.3587    2.5707    6.2719 H   0  0  0  0  0  0
    0.3119    0.5610    0.4967 C   0  0  0  0  0  0
    1.1422   -0.5581    0.5361 C   0  0  0  0  0  0
    0.5878   -1.8367    0.5541 C   0  0  0  0  0  0
   -0.7967   -1.9964    0.5330 C   0  0  0  0  0  0
   -1.6269   -0.8775    0.4942 C   0  0  0  0  0  0
   -1.0727    0.4012    0.4760 C   0  0  0  0  0  0
    0.7421    1.5534    0.4816 H   0  0  0  0  0  0
    2.2165   -0.4342    0.5523 H   0  0  0  0  0  0
    1.2319   -2.7048    0.5852 H   0  0  0  0  0  0
   -1.2268   -2.9884    0.5486 H   0  0  0  0  0  0
   -2.7011   -1.0014    0.4798 H   0  0  0  0  0  0
   -1.7170    1.2694    0.4459 H   0  0  0  0  0  0
  1  2  1  0  0  0
  2  3  1  0  0  0
  2  4  1  0  0  0
  2  5  1  0  0  0
  1  6  1  0  0  0
  1  7  1  0  0  0
  1  8  1  0  0  0
  3  9  1  0  0  0
  3 10  1  0  0  0
  3 11  1  0  0  0
  4 12  1  0  0  0
  4 13  1  0  0  0
  4 14  1  0  0  0
  5 15  1  0  0  0
  5 16  1  0  0  0
  5 17  1  0  0  0
 18 19  1  0  0  0
 19 20  2  0  0  0
 20 21  1  0  0  0
 21 22  2  0  0  0
 22 23  1  0  0  0
 18 23  2  0  0  0
 18 24  1  0  0  0
 19 25  1  0  0  0
 20 26  1  0  0  0
 21 27  1  0  0  0
 22 28  1  0  0  0
 23 29  1  0  0  0
M  END
$$$$
