


 29 28  0  0  1  0            999 V2000
    1.4919    0.5852    7.4712 C   0  0  0  0  0  0
    0.0457    0.4064    7.9261 C   0  0  0  0  0  0
   -0.0087    0.3751    9.4510 C   0  0  0  0  0  0
   -0.5037   -0.9031    7.3658 C   0  0  0  0  0  0
   -0.7957    1.5710    7.4099 C   0  0  0  0  0  0
    1.9078    1.5185    7.8546 H   0  0  0  0  0  0
    2.1153   -0.2354    7.8300 H   0  0  0  0  0  0
    1.5525    0.6046    6.3822 H   0  0  0  0  0  0
   -1.0345    0.2476    9.8001 H   0  0  0  0  0  0
    0.5867   -0.4506    9.8435 H   0  0  0  0  0  0
    0.3796    1.3029    9.8739 H   0  0  0  0  0  0
   -1.5386   -1.0533    7.6785 H   0  0  0  0  0  0
    0.0827   -1.7520    7.7216 H   0  0  0  0  0  0
   -0.4749   -0.9035    6.2755 H   0  0  0  0  0  0
   -0.7742    1.6070    6.3199 H   0  0  0  0  0  0
   -1.8355    1.4672    7.7244 H   0  0  0  0  0  0
   -0.4201    2.5217    7.7920 H   0  0  0  0  0  0
    0.3119    0.5610    0.4967 C   0  0  0  0  0  0
    1.1422   -0.5581    0.5361 C   0  0  0  0  0  0
    0.5878   -1.8367    0.5541 C   0  0  0  0  0  0
   -0.7967   -1.9964    0.5330 C   0  0  0  0  0  0
   -1.6269   -0.8775    0.4942 C   0  0  0  0  0  0
   -1.0727    0.4012    0.4760 C   0  0  0  0  0  0
    0.7421    1.5534    0.4816 H   0  0  0  0  0  0
    2.2165   -0.4342    0.5523 H   0  0  0  0  0  0
    1.2319   -2.7048    0.5852 H   0  0  0  0  0  0
   -1.2268   -2.9884    0.5486 H   0  0  0  0  0  0
   -2.7011   -1.0014    0.4798 H   0  0  0  0  0  0
   -1.7170    1.2694    0.4459 H   0  0  0  0  0  0
  1  2  1  0  0  0
  2  3  1  0  0  0
  2  4  1  0  0  0
  2  5  1  0  0  0
  1  6  1  0  0  0
  1  7  1  0  0  0
  1  8  1  0  0  0
  3  9  1  0  0  0
  3 10  1  0  0  0
  3 11  1  0  0  0
  4 12  1  0  0  0
  4 13  1  0  0  0
  4 14  1  0  0  0
  5 15  1  0  0  0
  5 16  1  0  0  0
  5 17  1  0  0  0
 18 19  1  0  0  0
 19 20  2  0  0  0
 20 21  1  0  0  0
 21 22  2  0  0  0
 22 23  1  0  0  0
 18 23  2  0  0  0
 18 24  1  0  0  0
 19 25  1  0  0  0
 20 26  1  0  0  0
 21 27  1  0  0  0
 22 28  1  0  0  0
 23 29  1  0  0  0
M  END
$$$$
