


 29 28  0  0  1  0            999 V2000
    1.6173    0.6854    4.3639 C   0  0  0  0  0  0
    0.1711    0.5066    4.8189 C   0  0  0  0  0  0
    0.1167    0.4753    6.3438 C   0  0  0  0  0  0
   -0.3783   -0.8029    4.2586 C   0  0  0  0  0  0
   -0.6703    1.6712    4.3027 C   0  0  0  0  0  0
    2.0332    1.6187    4.7474 H   0  0  0  0  0  0
    2.2408   -0.1352    4.7228 H   0  0  0  0  0  0
    1.6780    0.7048    3.2750 H   0  0  0  0  0  0
   -0.9091    0.3478    6.6929 H   0  0  0  0  0  0
    0.7121   -0.3504    6.7363 H   0  0  0  0  0  0
    0.5050    1.4031    6.7667 H   0  0  0  0  0  0
   -1.4131   -0.9531    4.5713 H   0  0  0  0  0  0
    0.2082   -1.6518    4.6144 H   0  0  0  0  0  0
   -0.3495   -0.8033    3.1683 H   0  0  0  0  0  0
   -0.6487    1.7072    3.2127 H   0  0  0  0  0  0
   -1.7101    1.5674    4.6172 H   0  0  0  0  0  0
   -0.2946    2.6219    4.6848 H   0  0  0  0  0  0
    0.3119    0.5610    0.4967 C   0  0  0  0  0  0
    1.1422   -0.5581    0.5361 C   0  0  0  0  0  0
    0.5878   -1.8367    0.5541 C   0  0  0  0  0  0
   -0.7967   -1.9964    0.5330 C   0  0  0  0  0  0
   -1.6269   -0.8775    0.4942 C   0  0  0  0  0  0
   -1.0727    0.4012    0.4760 C   0  0  0  0  0  0
    0.7421    1.5534    0.4816 H   0  0  0  0  0  0
    2.2165   -0.4342    0.5523 H   0  0  0  0  0  0
    1.2319   -2.7048    0.5852 H   0  0  0  0  0  0
   -1.2268   -2.9884    0.5486 H   0  0  0  0  0  0
   -2.7011   -1.0014    0.4798 H   0  0  0  0  0  0
   -1.7170    1.2694    0.4459 H   0  0  0  0  0  0
  1  2  1  0  0  0
  2  3  1  0  0  0
  2  4  1  0  0  0
  2  5  1  0  0  0
  1  6  1  0  0  0
  1  7  1  0  0  0
  1  8  1  0  0  0
  3  9  1  0  0  0
  3 10  1  0  0  0
  3 11  1  0  0  0
  4 12  1  0  0  0
  4 13  1  0  0  0
  4 14  1  0  0  0
  5 15  1  0  0  0
  5 16  1  0  0  0
  5 17  1  0  0  0
 18 19  1  0  0  0
 19 20  2  0  0  0
 20 21  1  0  0  0
 21 22  2  0  0  0
 22 23  1  0  0  0
 18 23  2  0  0  0
 18 24  1  0  0  0
 19 25  1  0  0  0
 20 26  1  0  0  0
 21 27  1  0  0  0
 22 28  1  0  0  0
 23 29  1  0  0  0
M  END
$$$$
