


 29 28  0  0  1  0            999 V2000
    1.6041    0.6748    4.6920 C   0  0  0  0  0  0
    0.1579    0.4961    5.1470 C   0  0  0  0  0  0
    0.1035    0.4647    6.6719 C   0  0  0  0  0  0
   -0.3915   -0.8134    4.5867 C   0  0  0  0  0  0
   -0.6835    1.6606    4.6308 C   0  0  0  0  0  0
    2.0200    1.6081    5.0754 H   0  0  0  0  0  0
    2.2275   -0.1458    5.0509 H   0  0  0  0  0  0
    1.6647    0.6942    3.6031 H   0  0  0  0  0  0
   -0.9223    0.3373    7.0209 H   0  0  0  0  0  0
    0.6989   -0.3610    7.0644 H   0  0  0  0  0  0
    0.4918    1.3926    7.0947 H   0  0  0  0  0  0
   -1.4264   -0.9637    4.8994 H   0  0  0  0  0  0
    0.1949   -1.6624    4.9425 H   0  0  0  0  0  0
   -0.3627   -0.8139    3.4964 H   0  0  0  0  0  0
   -0.6620    1.6967    3.5408 H   0  0  0  0  0  0
   -1.7233    1.5569    4.9453 H   0  0  0  0  0  0
   -0.3079    2.6113    5.0129 H   0  0  0  0  0  0
    0.3119    0.5610    0.4967 C   0  0  0  0  0  0
    1.1422   -0.5581    0.5361 C   0  0  0  0  0  0
    0.5878   -1.8367    0.5541 C   0  0  0  0  0  0
   -0.7967   -1.9964    0.5330 C   0  0  0  0  0  0
   -1.6269   -0.8775    0.4942 C   0  0  0  0  0  0
   -1.0727    0.4012    0.4760 C   0  0  0  0  0  0
    0.7421    1.5534    0.4816 H   0  0  0  0  0  0
    2.2165   -0.4342    0.5523 H   0  0  0  0  0  0
    1.2319   -2.7048    0.5852 H   0  0  0  0  0  0
   -1.2268   -2.9884    0.5486 H   0  0  0  0  0  0
   -2.7011   -1.0014    0.4798 H   0  0  0  0  0  0
   -1.7170    1.2694    0.4459 H   0  0  0  0  0  0
  1  2  1  0  0  0
  2  3  1  0  0  0
  2  4  1  0  0  0
  2  5  1  0  0  0
  1  6  1  0  0  0
  1  7  1  0  0  0
  1  8  1  0  0  0
  3  9  1  0  0  0
  3 10  1  0  0  0
  3 11  1  0  0  0
  4 12  1  0  0  0
  4 13  1  0  0  0
  4 14  1  0  0  0
  5 15  1  0  0  0
  5 16  1  0  0  0
  5 17  1  0  0  0
 18 19  1  0  0  0
 19 20  2  0  0  0
 20 21  1  0  0  0
 21 22  2  0  0  0
 22 23  1  0  0  0
 18 23  2  0  0  0
 18 24  1  0  0  0
 19 25  1  0  0  0
 20 26  1  0  0  0
 21 27  1  0  0  0
 22 28  1  0  0  0
 23 29  1  0  0  0
M  END
$$$$
