


 29 28  0  0  1  0            999 V2000
    1.6310    0.6963    4.0262 C   0  0  0  0  0  0
    0.1847    0.5175    4.4812 C   0  0  0  0  0  0
    0.1303    0.4862    6.0060 C   0  0  0  0  0  0
   -0.3646   -0.7920    3.9209 C   0  0  0  0  0  0
   -0.6566    1.6821    3.9650 C   0  0  0  0  0  0
    2.0468    1.6296    4.4096 H   0  0  0  0  0  0
    2.2544   -0.1243    4.3851 H   0  0  0  0  0  0
    1.6916    0.7157    2.9373 H   0  0  0  0  0  0
   -0.8954    0.3587    6.3551 H   0  0  0  0  0  0
    0.7258   -0.3395    6.3986 H   0  0  0  0  0  0
    0.5186    1.4140    6.4289 H   0  0  0  0  0  0
   -1.3995   -0.9422    4.2336 H   0  0  0  0  0  0
    0.2218   -1.6409    4.2767 H   0  0  0  0  0  0
   -0.3359   -0.7924    2.8306 H   0  0  0  0  0  0
   -0.6351    1.7181    2.8750 H   0  0  0  0  0  0
   -1.6964    1.5783    4.2795 H   0  0  0  0  0  0
   -0.2810    2.6328    4.3471 H   0  0  0  0  0  0
    0.3119    0.5610    0.4967 C   0  0  0  0  0  0
    1.1422   -0.5581    0.5361 C   0  0  0  0  0  0
    0.5878   -1.8367    0.5541 C   0  0  0  0  0  0
   -0.7967   -1.9964    0.5330 C   0  0  0  0  0  0
   -1.6269   -0.8775    0.4942 C   0  0  0  0  0  0
   -1.0727    0.4012    0.4760 C   0  0  0  0  0  0
    0.7421    1.5534    0.4816 H   0  0  0  0  0  0
    2.2165   -0.4342    0.5523 H   0  0  0  0  0  0
    1.2319   -2.7048    0.5852 H   0  0  0  0  0  0
   -1.2268   -2.9884    0.5486 H   0  0  0  0  0  0
   -2.7011   -1.0014    0.4798 H   0  0  0  0  0  0
   -1.7170    1.2694    0.4459 H   0  0  0  0  0  0
  1  2  1  0  0  0
  2  3  1  0  0  0
  2  4  1  0  0  0
  2  5  1  0  0  0
  1  6  1  0  0  0
  1  7  1  0  0  0
  1  8  1  0  0  0
  3  9  1  0  0  0
  3 10  1  0  0  0
  3 11  1  0  0  0
  4 12  1  0  0  0
  4 13  1  0  0  0
  4 14  1  0  0  0
  5 15  1  0  0  0
  5 16  1  0  0  0
  5 17  1  0  0  0
 18 19  1  0  0  0
 19 20  2  0  0  0
 20 21  1  0  0  0
 21 22  2  0  0  0
 22 23  1  0  0  0
 18 23  2  0  0  0
 18 24  1  0  0  0
 19 25  1  0  0  0
 20 26  1  0  0  0
 21 27  1  0  0  0
 22 28  1  0  0  0
 23 29  1  0  0  0
M  END
$$$$
