


 29 28  0  0  1  0            999 V2000
    1.6241    0.6908    4.1966 C   0  0  0  0  0  0
    0.1779    0.5120    4.6516 C   0  0  0  0  0  0
    0.1235    0.4807    6.1764 C   0  0  0  0  0  0
   -0.3715   -0.7975    4.0913 C   0  0  0  0  0  0
   -0.6635    1.6766    4.1354 C   0  0  0  0  0  0
    2.0400    1.6241    4.5800 H   0  0  0  0  0  0
    2.2475   -0.1298    4.5555 H   0  0  0  0  0  0
    1.6847    0.7102    3.1077 H   0  0  0  0  0  0
   -0.9023    0.3532    6.5255 H   0  0  0  0  0  0
    0.7189   -0.3450    6.5690 H   0  0  0  0  0  0
    0.5118    1.4086    6.5994 H   0  0  0  0  0  0
   -1.4064   -0.9477    4.4040 H   0  0  0  0  0  0
    0.2149   -1.6464    4.4471 H   0  0  0  0  0  0
   -0.3427   -0.7979    3.0010 H   0  0  0  0  0  0
   -0.6420    1.7126    3.0454 H   0  0  0  0  0  0
   -1.7033    1.5728    4.4499 H   0  0  0  0  0  0
   -0.2879    2.6273    4.5175 H   0  0  0  0  0  0
    0.3119    0.5610    0.4967 C   0  0  0  0  0  0
    1.1422   -0.5581    0.5361 C   0  0  0  0  0  0
    0.5878   -1.8367    0.5541 C   0  0  0  0  0  0
   -0.7967   -1.9964    0.5330 C   0  0  0  0  0  0
   -1.6269   -0.8775    0.4942 C   0  0  0  0  0  0
   -1.0727    0.4012    0.4760 C   0  0  0  0  0  0
    0.7421    1.5534    0.4816 H   0  0  0  0  0  0
    2.2165   -0.4342    0.5523 H   0  0  0  0  0  0
    1.2319   -2.7048    0.5852 H   0  0  0  0  0  0
   -1.2268   -2.9884    0.5486 H   0  0  0  0  0  0
   -2.7011   -1.0014    0.4798 H   0  0  0  0  0  0
   -1.7170    1.2694    0.4459 H   0  0  0  0  0  0
  1  2  1  0  0  0
  2  3  1  0  0  0
  2  4  1  0  0  0
  2  5  1  0  0  0
  1  6  1  0  0  0
  1  7  1  0  0  0
  1  8  1  0  0  0
  3  9  1  0  0  0
  3 10  1  0  0  0
  3 11  1  0  0  0
  4 12  1  0  0  0
  4 13  1  0  0  0
  4 14  1  0  0  0
  5 15  1  0  0  0
  5 16  1  0  0  0
  5 17  1  0  0  0
 18 19  1  0  0  0
 19 20  2  0  0  0
 20 21  1  0  0  0
 21 22  2  0  0  0
 22 23  1  0  0  0
 18 23  2  0  0  0
 18 24  1  0  0  0
 19 25  1  0  0  0
 20 26  1  0  0  0
 21 27  1  0  0  0
 22 28  1  0  0  0
 23 29  1  0  0  0
M  END
$$$$
