


 29 28  0  0  1  0            999 V2000
    1.6107    0.6801    4.5291 C   0  0  0  0  0  0
    0.1644    0.5013    4.9840 C   0  0  0  0  0  0
    0.1101    0.4699    6.5089 C   0  0  0  0  0  0
   -0.3849   -0.8082    4.4237 C   0  0  0  0  0  0
   -0.6769    1.6659    4.4678 C   0  0  0  0  0  0
    2.0265    1.6134    4.9125 H   0  0  0  0  0  0
    2.2341   -0.1405    4.8879 H   0  0  0  0  0  0
    1.6713    0.6995    3.4401 H   0  0  0  0  0  0
   -0.9157    0.3425    6.8580 H   0  0  0  0  0  0
    0.7054   -0.3557    6.9015 H   0  0  0  0  0  0
    0.4983    1.3978    6.9318 H   0  0  0  0  0  0
   -1.4198   -0.9585    4.7364 H   0  0  0  0  0  0
    0.2015   -1.6572    4.7796 H   0  0  0  0  0  0
   -0.3562   -0.8086    3.3334 H   0  0  0  0  0  0
   -0.6554    1.7019    3.3778 H   0  0  0  0  0  0
   -1.7167    1.5621    4.7823 H   0  0  0  0  0  0
   -0.3013    2.6166    4.8499 H   0  0  0  0  0  0
    0.3119    0.5610    0.4967 C   0  0  0  0  0  0
    1.1422   -0.5581    0.5361 C   0  0  0  0  0  0
    0.5878   -1.8367    0.5541 C   0  0  0  0  0  0
   -0.7967   -1.9964    0.5330 C   0  0  0  0  0  0
   -1.6269   -0.8775    0.4942 C   0  0  0  0  0  0
   -1.0727    0.4012    0.4760 C   0  0  0  0  0  0
    0.7421    1.5534    0.4816 H   0  0  0  0  0  0
    2.2165   -0.4342    0.5523 H   0  0  0  0  0  0
    1.2319   -2.7048    0.5852 H   0  0  0  0  0  0
   -1.2268   -2.9884    0.5486 H   0  0  0  0  0  0
   -2.7011   -1.0014    0.4798 H   0  0  0  0  0  0
   -1.7170    1.2694    0.4459 H   0  0  0  0  0  0
  1  2  1  0  0  0
  2  3  1  0  0  0
  2  4  1  0  0  0
  2  5  1  0  0  0
  1  6  1  0  0  0
  1  7  1  0  0  0
  1  8  1  0  0  0
  3  9  1  0  0  0
  3 10  1  0  0  0
  3 11  1  0  0  0
  4 12  1  0  0  0
  4 13  1  0  0  0
  4 14  1  0  0  0
  5 15  1  0  0  0
  5 16  1  0  0  0
  5 17  1  0  0  0
 18 19  1  0  0  0
 19 20  2  0  0  0
 20 21  1  0  0  0
 21 22  2  0  0  0
 22 23  1  0  0  0
 18 23  2  0  0  0
 18 24  1  0  0  0
 19 25  1  0  0  0
 20 26  1  0  0  0
 21 27  1  0  0  0
 22 28  1  0  0  0
 23 29  1  0  0  0
M  END
$$$$
