


 29 28  0  0  1  0            999 V2000
    1.5847    0.6594    5.1717 C   0  0  0  0  0  0
    0.1385    0.4806    5.6267 C   0  0  0  0  0  0
    0.0841    0.4492    7.1515 C   0  0  0  0  0  0
   -0.4109   -0.8289    5.0664 C   0  0  0  0  0  0
   -0.7029    1.6452    5.1105 C   0  0  0  0  0  0
    2.0006    1.5927    5.5552 H   0  0  0  0  0  0
    2.2081   -0.1612    5.5306 H   0  0  0  0  0  0
    1.6453    0.6788    4.0828 H   0  0  0  0  0  0
   -0.9417    0.3218    7.5006 H   0  0  0  0  0  0
    0.6795   -0.3765    7.5441 H   0  0  0  0  0  0
    0.4724    1.3771    7.5745 H   0  0  0  0  0  0
   -1.4458   -0.9792    5.3791 H   0  0  0  0  0  0
    0.1756   -1.6779    5.4222 H   0  0  0  0  0  0
   -0.3821   -0.8294    3.9761 H   0  0  0  0  0  0
   -0.6813    1.6812    4.0205 H   0  0  0  0  0  0
   -1.7427    1.5414    5.4250 H   0  0  0  0  0  0
   -0.3272    2.5958    5.4926 H   0  0  0  0  0  0
    0.3119    0.5610    0.4967 C   0  0  0  0  0  0
    1.1422   -0.5581    0.5361 C   0  0  0  0  0  0
    0.5878   -1.8367    0.5541 C   0  0  0  0  0  0
   -0.7967   -1.9964    0.5330 C   0  0  0  0  0  0
   -1.6269   -0.8775    0.4942 C   0  0  0  0  0  0
   -1.0727    0.4012    0.4760 C   0  0  0  0  0  0
    0.7421    1.5534    0.4816 H   0  0  0  0  0  0
    2.2165   -0.4342    0.5523 H   0  0  0  0  0  0
    1.2319   -2.7048    0.5852 H   0  0  0  0  0  0
   -1.2268   -2.9884    0.5486 H   0  0  0  0  0  0
   -2.7011   -1.0014    0.4798 H   0  0  0  0  0  0
   -1.7170    1.2694    0.4459 H   0  0  0  0  0  0
  1  2  1  0  0  0
  2  3  1  0  0  0
  2  4  1  0  0  0
  2  5  1  0  0  0
  1  6  1  0  0  0
  1  7  1  0  0  0
  1  8  1  0  0  0
  3  9  1  0  0  0
  3 10  1  0  0  0
  3 11  1  0  0  0
  4 12  1  0  0  0
  4 13  1  0  0  0
  4 14  1  0  0  0
  5 15  1  0  0  0
  5 16  1  0  0  0
  5 17  1  0  0  0
 18 19  1  0  0  0
 19 20  2  0  0  0
 20 21  1  0  0  0
 21 22  2  0  0  0
 22 23  1  0  0  0
 18 23  2  0  0  0
 18 24  1  0  0  0
 19 25  1  0  0  0
 20 26  1  0  0  0
 21 27  1  0  0  0
 22 28  1  0  0  0
 23 29  1  0  0  0
M  END
$$$$
