


 24 24  0  0  1  0            999 V2000
    1.8131    1.5792    3.3360 O   0  0  0  0  0  0
    1.1222    0.5847    3.4808 C   0  0  0  0  0  0
    1.6011   -0.7493    3.7989 C   0  0  0  0  0  0
    0.7214   -1.7637    3.9251 C   0  0  0  0  0  0
   -0.6239   -1.5787    3.7550 N   0  0  0  0  0  0
   -1.2726   -2.3412    3.8539 H   0  0  0  0  0  0
   -1.1983   -0.3539    3.4556 C   0  0  0  0  0  0
   -2.3961   -0.2031    3.3135 O   0  0  0  0  0  0
   -0.2700    0.6577    3.3488 N   0  0  0  0  0  0
   -0.6433    1.5595    3.0859 H   0  0  0  0  0  0
    2.6581   -0.9015    3.9330 H   0  0  0  0  0  0
    1.0273   -2.7721    4.1617 H   0  0  0  0  0  0
    0.8258    1.2365   -0.0402 C   0  0  0  0  0  0
    1.3002   -0.0629    0.1273 C   0  0  0  0  0  0
    0.4035   -1.1286    0.1982 C   0  0  0  0  0  0
   -0.9678   -0.8952    0.1031 C   0  0  0  0  0  0
   -1.4435    0.4045   -0.0624 C   0  0  0  0  0  0
   -0.5458    1.4688   -0.1363 C   0  0  0  0  0  0
    1.5210    2.0631   -0.0825 H   0  0  0  0  0  0
    2.3637   -0.2423    0.2077 H   0  0  0  0  0  0
    0.7738   -2.1374    0.3241 H   0  0  0  0  0  0
   -1.6652   -1.7200    0.1604 H   0  0  0  0  0  0
   -2.5075    0.5855   -0.1242 H   0  0  0  0  0  0
   -0.9142    2.4774   -0.2679 H   0  0  0  0  0  0
  1  2  2  0  0  0
  2  3  1  0  0  0
  3  4  2  0  0  0
  4  5  1  0  0  0
  5  6  1  0  0  0
  5  7  1  0  0  0
  7  8  2  0  0  0
  7  9  1  0  0  0
  9 10  1  0  0  0
  2  9  1  0  0  0
  3 11  1  0  0  0
  4 12  1  0  0  0
 13 14  1  0  0  0
 14 15  2  0  0  0
 15 16  1  0  0  0
 16 17  2  0  0  0
 17 18  1  0  0  0
 13 18  2  0  0  0
 13 19  1  0  0  0
 14 20  1  0  0  0
 15 21  1  0  0  0
 16 22  1  0  0  0
 17 23  1  0  0  0
 18 24  1  0  0  0
M  END
$$$$
