


 24 24  0  0  1  0            999 V2000
    1.7955    1.6286    2.8721 O   0  0  0  0  0  0
    1.1046    0.6341    3.0169 C   0  0  0  0  0  0
    1.5835   -0.6999    3.3350 C   0  0  0  0  0  0
    0.7038   -1.7143    3.4612 C   0  0  0  0  0  0
   -0.6414   -1.5293    3.2912 N   0  0  0  0  0  0
   -1.2902   -2.2919    3.3900 H   0  0  0  0  0  0
   -1.2159   -0.3045    2.9917 C   0  0  0  0  0  0
   -2.4137   -0.1537    2.8496 O   0  0  0  0  0  0
   -0.2875    0.7071    2.8849 N   0  0  0  0  0  0
   -0.6608    1.6089    2.6220 H   0  0  0  0  0  0
    2.6406   -0.8522    3.4691 H   0  0  0  0  0  0
    1.0097   -2.7227    3.6978 H   0  0  0  0  0  0
    0.8258    1.2365   -0.0402 C   0  0  0  0  0  0
    1.3002   -0.0629    0.1273 C   0  0  0  0  0  0
    0.4035   -1.1286    0.1982 C   0  0  0  0  0  0
   -0.9678   -0.8952    0.1031 C   0  0  0  0  0  0
   -1.4435    0.4045   -0.0624 C   0  0  0  0  0  0
   -0.5458    1.4688   -0.1363 C   0  0  0  0  0  0
    1.5210    2.0631   -0.0825 H   0  0  0  0  0  0
    2.3637   -0.2423    0.2077 H   0  0  0  0  0  0
    0.7738   -2.1374    0.3241 H   0  0  0  0  0  0
   -1.6652   -1.7200    0.1604 H   0  0  0  0  0  0
   -2.5075    0.5855   -0.1242 H   0  0  0  0  0  0
   -0.9142    2.4774   -0.2679 H   0  0  0  0  0  0
  1  2  2  0  0  0
  2  3  1  0  0  0
  3  4  2  0  0  0
  4  5  1  0  0  0
  5  6  1  0  0  0
  5  7  1  0  0  0
  7  8  2  0  0  0
  7  9  1  0  0  0
  9 10  1  0  0  0
  2  9  1  0  0  0
  3 11  1  0  0  0
  4 12  1  0  0  0
 13 14  1  0  0  0
 14 15  2  0  0  0
 15 16  1  0  0  0
 16 17  2  0  0  0
 17 18  1  0  0  0
 13 18  2  0  0  0
 13 19  1  0  0  0
 14 20  1  0  0  0
 15 21  1  0  0  0
 16 22  1  0  0  0
 17 23  1  0  0  0
 18 24  1  0  0  0
M  END
$$$$
