


 24 24  0  0  1  0            999 V2000
    1.8014    1.6121    3.0269 O   0  0  0  0  0  0
    1.1105    0.6176    3.1718 C   0  0  0  0  0  0
    1.5894   -0.7164    3.4899 C   0  0  0  0  0  0
    0.7097   -1.7308    3.6161 C   0  0  0  0  0  0
   -0.6356   -1.5458    3.4460 N   0  0  0  0  0  0
   -1.2843   -2.3083    3.5449 H   0  0  0  0  0  0
   -1.2100   -0.3210    3.1466 C   0  0  0  0  0  0
   -2.4078   -0.1701    3.0045 O   0  0  0  0  0  0
   -0.2817    0.6906    3.0398 N   0  0  0  0  0  0
   -0.6550    1.5924    2.7768 H   0  0  0  0  0  0
    2.6464   -0.8687    3.6240 H   0  0  0  0  0  0
    1.0156   -2.7392    3.8526 H   0  0  0  0  0  0
    0.8258    1.2365   -0.0402 C   0  0  0  0  0  0
    1.3002   -0.0629    0.1273 C   0  0  0  0  0  0
    0.4035   -1.1286    0.1982 C   0  0  0  0  0  0
   -0.9678   -0.8952    0.1031 C   0  0  0  0  0  0
   -1.4435    0.4045   -0.0624 C   0  0  0  0  0  0
   -0.5458    1.4688   -0.1363 C   0  0  0  0  0  0
    1.5210    2.0631   -0.0825 H   0  0  0  0  0  0
    2.3637   -0.2423    0.2077 H   0  0  0  0  0  0
    0.7738   -2.1374    0.3241 H   0  0  0  0  0  0
   -1.6652   -1.7200    0.1604 H   0  0  0  0  0  0
   -2.5075    0.5855   -0.1242 H   0  0  0  0  0  0
   -0.9142    2.4774   -0.2679 H   0  0  0  0  0  0
  1  2  2  0  0  0
  2  3  1  0  0  0
  3  4  2  0  0  0
  4  5  1  0  0  0
  5  6  1  0  0  0
  5  7  1  0  0  0
  7  8  2  0  0  0
  7  9  1  0  0  0
  9 10  1  0  0  0
  2  9  1  0  0  0
  3 11  1  0  0  0
  4 12  1  0  0  0
 13 14  1  0  0  0
 14 15  2  0  0  0
 15 16  1  0  0  0
 16 17  2  0  0  0
 17 18  1  0  0  0
 13 18  2  0  0  0
 13 19  1  0  0  0
 14 20  1  0  0  0
 15 21  1  0  0  0
 16 22  1  0  0  0
 17 23  1  0  0  0
 18 24  1  0  0  0
M  END
$$$$
