


 24 24  0  0  1  0            999 V2000
    1.9236    1.2686    6.2524 O   0  0  0  0  0  0
    1.2327    0.2742    6.3973 C   0  0  0  0  0  0
    1.7116   -1.0599    6.7154 C   0  0  0  0  0  0
    0.8319   -2.0742    6.8416 C   0  0  0  0  0  0
   -0.5134   -1.8892    6.6715 N   0  0  0  0  0  0
   -1.1621   -2.6518    6.7704 H   0  0  0  0  0  0
   -1.0878   -0.6644    6.3721 C   0  0  0  0  0  0
   -2.2856   -0.5136    6.2300 O   0  0  0  0  0  0
   -0.1595    0.3472    6.2653 N   0  0  0  0  0  0
   -0.5328    1.2490    6.0024 H   0  0  0  0  0  0
    2.7686   -1.2121    6.8495 H   0  0  0  0  0  0
    1.1378   -3.0827    7.0781 H   0  0  0  0  0  0
    0.8258    1.2365   -0.0402 C   0  0  0  0  0  0
    1.3002   -0.0629    0.1273 C   0  0  0  0  0  0
    0.4035   -1.1286    0.1982 C   0  0  0  0  0  0
   -0.9678   -0.8952    0.1031 C   0  0  0  0  0  0
   -1.4435    0.4045   -0.0624 C   0  0  0  0  0  0
   -0.5458    1.4688   -0.1363 C   0  0  0  0  0  0
    1.5210    2.0631   -0.0825 H   0  0  0  0  0  0
    2.3637   -0.2423    0.2077 H   0  0  0  0  0  0
    0.7738   -2.1374    0.3241 H   0  0  0  0  0  0
   -1.6652   -1.7200    0.1604 H   0  0  0  0  0  0
   -2.5075    0.5855   -0.1242 H   0  0  0  0  0  0
   -0.9142    2.4774   -0.2679 H   0  0  0  0  0  0
  1  2  2  0  0  0
  2  3  1  0  0  0
  3  4  2  0  0  0
  4  5  1  0  0  0
  5  6  1  0  0  0
  5  7  1  0  0  0
  7  8  2  0  0  0
  7  9  1  0  0  0
  9 10  1  0  0  0
  2  9  1  0  0  0
  3 11  1  0  0  0
  4 12  1  0  0  0
 13 14  1  0  0  0
 14 15  2  0  0  0
 15 16  1  0  0  0
 16 17  2  0  0  0
 17 18  1  0  0  0
 13 18  2  0  0  0
 13 19  1  0  0  0
 14 20  1  0  0  0
 15 21  1  0  0  0
 16 22  1  0  0  0
 17 23  1  0  0  0
 18 24  1  0  0  0
M  END
$$$$
