


 24 24  0  0  1  0            999 V2000
    1.8655    1.4318    4.7202 O   0  0  0  0  0  0
    1.1746    0.4374    4.8650 C   0  0  0  0  0  0
    1.6535   -0.8967    5.1831 C   0  0  0  0  0  0
    0.7738   -1.9111    5.3094 C   0  0  0  0  0  0
   -0.5714   -1.7261    5.1393 N   0  0  0  0  0  0
   -1.2202   -2.4886    5.2381 H   0  0  0  0  0  0
   -1.1459   -0.5013    4.8399 C   0  0  0  0  0  0
   -2.3437   -0.3504    4.6977 O   0  0  0  0  0  0
   -0.2175    0.5103    4.7330 N   0  0  0  0  0  0
   -0.5908    1.4121    4.4701 H   0  0  0  0  0  0
    2.7106   -1.0489    5.3173 H   0  0  0  0  0  0
    1.0797   -2.9195    5.5459 H   0  0  0  0  0  0
    0.8258    1.2365   -0.0402 C   0  0  0  0  0  0
    1.3002   -0.0629    0.1273 C   0  0  0  0  0  0
    0.4035   -1.1286    0.1982 C   0  0  0  0  0  0
   -0.9678   -0.8952    0.1031 C   0  0  0  0  0  0
   -1.4435    0.4045   -0.0624 C   0  0  0  0  0  0
   -0.5458    1.4688   -0.1363 C   0  0  0  0  0  0
    1.5210    2.0631   -0.0825 H   0  0  0  0  0  0
    2.3637   -0.2423    0.2077 H   0  0  0  0  0  0
    0.7738   -2.1374    0.3241 H   0  0  0  0  0  0
   -1.6652   -1.7200    0.1604 H   0  0  0  0  0  0
   -2.5075    0.5855   -0.1242 H   0  0  0  0  0  0
   -0.9142    2.4774   -0.2679 H   0  0  0  0  0  0
  1  2  2  0  0  0
  2  3  1  0  0  0
  3  4  2  0  0  0
  4  5  1  0  0  0
  5  6  1  0  0  0
  5  7  1  0  0  0
  7  8  2  0  0  0
  7  9  1  0  0  0
  9 10  1  0  0  0
  2  9  1  0  0  0
  3 11  1  0  0  0
  4 12  1  0  0  0
 13 14  1  0  0  0
 14 15  2  0  0  0
 15 16  1  0  0  0
 16 17  2  0  0  0
 17 18  1  0  0  0
 13 18  2  0  0  0
 13 19  1  0  0  0
 14 20  1  0  0  0
 15 21  1  0  0  0
 16 22  1  0  0  0
 17 23  1  0  0  0
 18 24  1  0  0  0
M  END
$$$$
