


 15 13  0  0  1  0            999 V2000
    5.4038    0.1318   -0.0569 C   0  0  0  0  0  0
    4.5356   -1.0202   -0.1663 N   0  0  0  0  0  0
    3.1850   -0.9227   -0.1017 C   0  0  0  0  0  0
    2.6082    0.1526    0.0549 O   0  0  0  0  0  0
    2.4302   -2.2207   -0.2343 C   0  0  0  0  0  0
    4.7673    1.0000    0.0779 H   0  0  0  0  0  0
    6.0694    0.0403    0.7992 H   0  0  0  0  0  0
    5.9983    0.2612   -0.9591 H   0  0  0  0  0  0
    4.9366   -1.9308   -0.2958 H   0  0  0  0  0  0
    3.0802   -3.0818   -0.3672 H   0  0  0  0  0  0
    1.7493   -2.1433   -1.0782 H   0  0  0  0  0  0
    1.8172   -2.3595    0.6527 H   0  0  0  0  0  0
   -0.3920   -0.3847    0.0761 O   0  0  0  0  0  0
   -0.9115    0.4138    0.1777 H   0  0  0  0  0  0
    0.5249   -0.0685    0.0905 H   0  0  0  0  0  0
  1  2  1  0  0  0
  2  3  1  0  0  0
  3  4  2  0  0  0
  3  5  1  0  0  0
  1  6  1  0  0  0
  1  7  1  0  0  0
  1  8  1  0  0  0
  2  9  1  0  0  0
  5 10  1  0  0  0
  5 11  1  0  0  0
  5 12  1  0  0  0
 13 14  1  0  0  0
 13 15  1  0  0  0
M  END
$$$$
