


 15 13  0  0  1  0            999 V2000
   -1.6581    0.2501   -1.2586 C   0  0  0  0  0  0
   -0.9534   -0.0764   -0.0408 N   0  0  0  0  0  0
   -1.6149   -0.3874    1.1041 C   0  0  0  0  0  0
   -2.8373   -0.4150    1.1941 O   0  0  0  0  0  0
   -0.7243   -0.7049    2.2839 C   0  0  0  0  0  0
   -2.7204    0.1769   -1.0467 H   0  0  0  0  0  0
   -1.4303    1.2630   -1.5881 H   0  0  0  0  0  0
   -1.4056   -0.4443   -2.0586 H   0  0  0  0  0  0
    0.0538   -0.0756   -0.0366 H   0  0  0  0  0  0
    0.3353   -0.6299    2.0532 H   0  0  0  0  0  0
   -0.9517   -1.7120    2.6256 H   0  0  0  0  0  0
   -0.9696   -0.0221    3.0938 H   0  0  0  0  0  0
    2.2351   -0.0573   -0.1627 O   0  0  0  0  0  0
    2.8001   -0.7703   -0.4679 H   0  0  0  0  0  0
    2.8149    0.7069   -0.1388 H   0  0  0  0  0  0
  1  2  1  0  0  0
  2  3  1  0  0  0
  3  4  2  0  0  0
  3  5  1  0  0  0
  1  6  1  0  0  0
  1  7  1  0  0  0
  1  8  1  0  0  0
  2  9  1  0  0  0
  5 10  1  0  0  0
  5 11  1  0  0  0
  5 12  1  0  0  0
 13 14  1  0  0  0
 13 15  1  0  0  0
M  END
$$$$
