


 15 13  0  0  1  0            999 V2000
    5.6880    0.1619   -0.0617 C   0  0  0  0  0  0
    4.8197   -0.9901   -0.1712 N   0  0  0  0  0  0
    3.4691   -0.8926   -0.1066 C   0  0  0  0  0  0
    2.8924    0.1827    0.0500 O   0  0  0  0  0  0
    2.7144   -2.1906   -0.2392 C   0  0  0  0  0  0
    5.0515    1.0302    0.0731 H   0  0  0  0  0  0
    6.3536    0.0704    0.7944 H   0  0  0  0  0  0
    6.2824    0.2913   -0.9640 H   0  0  0  0  0  0
    5.2207   -1.9006   -0.3007 H   0  0  0  0  0  0
    3.3643   -3.0517   -0.3721 H   0  0  0  0  0  0
    2.0334   -2.1131   -1.0830 H   0  0  0  0  0  0
    2.1013   -2.3294    0.6479 H   0  0  0  0  0  0
   -0.3920   -0.3847    0.0761 O   0  0  0  0  0  0
   -0.9115    0.4138    0.1777 H   0  0  0  0  0  0
    0.5249   -0.0685    0.0905 H   0  0  0  0  0  0
  1  2  1  0  0  0
  2  3  1  0  0  0
  3  4  2  0  0  0
  3  5  1  0  0  0
  1  6  1  0  0  0
  1  7  1  0  0  0
  1  8  1  0  0  0
  2  9  1  0  0  0
  5 10  1  0  0  0
  5 11  1  0  0  0
  5 12  1  0  0  0
 13 14  1  0  0  0
 13 15  1  0  0  0
M  END
$$$$
