


 15 13  0  0  1  0            999 V2000
    5.2144    0.1116   -0.0536 C   0  0  0  0  0  0
    4.3461   -1.0403   -0.1631 N   0  0  0  0  0  0
    2.9955   -0.9428   -0.0985 C   0  0  0  0  0  0
    2.4188    0.1325    0.0581 O   0  0  0  0  0  0
    2.2408   -2.2408   -0.2310 C   0  0  0  0  0  0
    4.5779    0.9800    0.0812 H   0  0  0  0  0  0
    5.8800    0.0202    0.8025 H   0  0  0  0  0  0
    5.8089    0.2411   -0.9559 H   0  0  0  0  0  0
    4.7471   -1.9509   -0.2926 H   0  0  0  0  0  0
    2.8907   -3.1019   -0.3640 H   0  0  0  0  0  0
    1.5598   -2.1634   -1.0749 H   0  0  0  0  0  0
    1.6278   -2.3796    0.6560 H   0  0  0  0  0  0
   -0.3920   -0.3847    0.0761 O   0  0  0  0  0  0
   -0.9115    0.4138    0.1777 H   0  0  0  0  0  0
    0.5249   -0.0685    0.0905 H   0  0  0  0  0  0
  1  2  1  0  0  0
  2  3  1  0  0  0
  3  4  2  0  0  0
  3  5  1  0  0  0
  1  6  1  0  0  0
  1  7  1  0  0  0
  1  8  1  0  0  0
  2  9  1  0  0  0
  5 10  1  0  0  0
  5 11  1  0  0  0
  5 12  1  0  0  0
 13 14  1  0  0  0
 13 15  1  0  0  0
M  END
$$$$
