


 15 13  0  0  1  0            999 V2000
    7.2698    0.3298   -0.0888 C   0  0  0  0  0  0
    6.4016   -0.8222   -0.1982 N   0  0  0  0  0  0
    5.0509   -0.7247   -0.1336 C   0  0  0  0  0  0
    4.4742    0.3506    0.0230 O   0  0  0  0  0  0
    4.2962   -2.0227   -0.2662 C   0  0  0  0  0  0
    6.6333    1.1981    0.0460 H   0  0  0  0  0  0
    7.9354    0.2383    0.7673 H   0  0  0  0  0  0
    7.8643    0.4592   -0.9910 H   0  0  0  0  0  0
    6.8025   -1.7328   -0.3277 H   0  0  0  0  0  0
    4.9462   -2.8839   -0.3991 H   0  0  0  0  0  0
    3.6152   -1.9453   -1.1101 H   0  0  0  0  0  0
    3.6832   -2.1615    0.6208 H   0  0  0  0  0  0
   -0.3920   -0.3847    0.0761 O   0  0  0  0  0  0
   -0.9115    0.4138    0.1777 H   0  0  0  0  0  0
    0.5249   -0.0685    0.0905 H   0  0  0  0  0  0
  1  2  1  0  0  0
  2  3  1  0  0  0
  3  4  2  0  0  0
  3  5  1  0  0  0
  1  6  1  0  0  0
  1  7  1  0  0  0
  1  8  1  0  0  0
  2  9  1  0  0  0
  5 10  1  0  0  0
  5 11  1  0  0  0
  5 12  1  0  0  0
 13 14  1  0  0  0
 13 15  1  0  0  0
M  END
$$$$
