


 15 13  0  0  1  0            999 V2000
    5.0251    0.0916   -0.0504 C   0  0  0  0  0  0
    4.1569   -1.0604   -0.1598 N   0  0  0  0  0  0
    2.8062   -0.9629   -0.0952 C   0  0  0  0  0  0
    2.2295    0.1124    0.0614 O   0  0  0  0  0  0
    2.0515   -2.2609   -0.2278 C   0  0  0  0  0  0
    4.3886    0.9599    0.0844 H   0  0  0  0  0  0
    5.6907    0.0001    0.8057 H   0  0  0  0  0  0
    5.6196    0.2210   -0.9527 H   0  0  0  0  0  0
    4.5578   -1.9709   -0.2894 H   0  0  0  0  0  0
    2.7015   -3.1220   -0.3607 H   0  0  0  0  0  0
    1.3705   -2.1834   -1.0717 H   0  0  0  0  0  0
    1.4385   -2.3997    0.6592 H   0  0  0  0  0  0
   -0.3920   -0.3847    0.0761 O   0  0  0  0  0  0
   -0.9115    0.4138    0.1777 H   0  0  0  0  0  0
    0.5249   -0.0685    0.0905 H   0  0  0  0  0  0
  1  2  1  0  0  0
  2  3  1  0  0  0
  3  4  2  0  0  0
  3  5  1  0  0  0
  1  6  1  0  0  0
  1  7  1  0  0  0
  1  8  1  0  0  0
  2  9  1  0  0  0
  5 10  1  0  0  0
  5 11  1  0  0  0
  5 12  1  0  0  0
 13 14  1  0  0  0
 13 15  1  0  0  0
M  END
$$$$
