


 15 13  0  0  1  0            999 V2000
    5.3092    0.1217   -0.0553 C   0  0  0  0  0  0
    4.4409   -1.0303   -0.1647 N   0  0  0  0  0  0
    3.0903   -0.9328   -0.1001 C   0  0  0  0  0  0
    2.5136    0.1425    0.0565 O   0  0  0  0  0  0
    2.3356   -2.2308   -0.2327 C   0  0  0  0  0  0
    4.6727    0.9900    0.0795 H   0  0  0  0  0  0
    5.9748    0.0302    0.8008 H   0  0  0  0  0  0
    5.9036    0.2511   -0.9575 H   0  0  0  0  0  0
    4.8419   -1.9408   -0.2942 H   0  0  0  0  0  0
    2.9855   -3.0919   -0.3656 H   0  0  0  0  0  0
    1.6546   -2.1533   -1.0765 H   0  0  0  0  0  0
    1.7226   -2.3696    0.6543 H   0  0  0  0  0  0
   -0.3920   -0.3847    0.0761 O   0  0  0  0  0  0
   -0.9115    0.4138    0.1777 H   0  0  0  0  0  0
    0.5249   -0.0685    0.0905 H   0  0  0  0  0  0
  1  2  1  0  0  0
  2  3  1  0  0  0
  3  4  2  0  0  0
  3  5  1  0  0  0
  1  6  1  0  0  0
  1  7  1  0  0  0
  1  8  1  0  0  0
  2  9  1  0  0  0
  5 10  1  0  0  0
  5 11  1  0  0  0
  5 12  1  0  0  0
 13 14  1  0  0  0
 13 15  1  0  0  0
M  END
$$$$
