


 15 13  0  0  1  0            999 V2000
    6.1614    0.2121   -0.0698 C   0  0  0  0  0  0
    5.2932   -0.9398   -0.1793 N   0  0  0  0  0  0
    3.9426   -0.8423   -0.1147 C   0  0  0  0  0  0
    3.3658    0.2330    0.0419 O   0  0  0  0  0  0
    3.1878   -2.1403   -0.2472 C   0  0  0  0  0  0
    5.5250    1.0804    0.0650 H   0  0  0  0  0  0
    6.8270    0.1207    0.7863 H   0  0  0  0  0  0
    6.7559    0.3416   -0.9721 H   0  0  0  0  0  0
    5.6941   -1.8504   -0.3088 H   0  0  0  0  0  0
    3.8378   -3.0015   -0.3802 H   0  0  0  0  0  0
    2.5069   -2.0629   -1.0911 H   0  0  0  0  0  0
    2.5748   -2.2791    0.6398 H   0  0  0  0  0  0
   -0.3920   -0.3847    0.0761 O   0  0  0  0  0  0
   -0.9115    0.4138    0.1777 H   0  0  0  0  0  0
    0.5249   -0.0685    0.0905 H   0  0  0  0  0  0
  1  2  1  0  0  0
  2  3  1  0  0  0
  3  4  2  0  0  0
  3  5  1  0  0  0
  1  6  1  0  0  0
  1  7  1  0  0  0
  1  8  1  0  0  0
  2  9  1  0  0  0
  5 10  1  0  0  0
  5 11  1  0  0  0
  5 12  1  0  0  0
 13 14  1  0  0  0
 13 15  1  0  0  0
M  END
$$$$
