


 15 13  0  0  1  0            999 V2000
    5.1198    0.1016   -0.0520 C   0  0  0  0  0  0
    4.2516   -1.0504   -0.1615 N   0  0  0  0  0  0
    2.9009   -0.9529   -0.0968 C   0  0  0  0  0  0
    2.3242    0.1224    0.0597 O   0  0  0  0  0  0
    2.1462   -2.2509   -0.2294 C   0  0  0  0  0  0
    4.4833    0.9699    0.0828 H   0  0  0  0  0  0
    5.7854    0.0102    0.8041 H   0  0  0  0  0  0
    5.7143    0.2310   -0.9543 H   0  0  0  0  0  0
    4.6525   -1.9609   -0.2910 H   0  0  0  0  0  0
    2.7961   -3.1120   -0.3623 H   0  0  0  0  0  0
    1.4652   -2.1734   -1.0733 H   0  0  0  0  0  0
    1.5332   -2.3897    0.6576 H   0  0  0  0  0  0
   -0.3920   -0.3847    0.0761 O   0  0  0  0  0  0
   -0.9115    0.4138    0.1777 H   0  0  0  0  0  0
    0.5249   -0.0685    0.0905 H   0  0  0  0  0  0
  1  2  1  0  0  0
  2  3  1  0  0  0
  3  4  2  0  0  0
  3  5  1  0  0  0
  1  6  1  0  0  0
  1  7  1  0  0  0
  1  8  1  0  0  0
  2  9  1  0  0  0
  5 10  1  0  0  0
  5 11  1  0  0  0
  5 12  1  0  0  0
 13 14  1  0  0  0
 13 15  1  0  0  0
M  END
$$$$
