


 24 22  0  0  1  0            999 V2000
   -1.2270    0.0898   -1.3200 C   0  0  0  0  0  0
   -0.6701    0.0059    0.0098 N   0  0  0  0  0  0
   -1.4485   -0.2449    1.0918 C   0  0  0  0  0  0
   -2.6604   -0.4285    1.0344 O   0  0  0  0  0  0
   -0.7015   -0.2906    2.4069 C   0  0  0  0  0  0
   -2.2920   -0.1065   -1.2409 H   0  0  0  0  0  0
   -1.0778    1.0799   -1.7485 H   0  0  0  0  0  0
   -0.7766   -0.6480   -1.9834 H   0  0  0  0  0  0
    0.3267    0.1226    0.1416 H   0  0  0  0  0  0
   -1.1833    0.3956    3.0989 H   0  0  0  0  0  0
    0.3496   -0.0303    2.3078 H   0  0  0  0  0  0
   -0.7941   -1.2916    2.8240 H   0  0  0  0  0  0
    5.1436   -0.1670   -0.1431 C   0  0  0  0  0  0
    4.2564   -1.2735    0.1458 N   0  0  0  0  0  0
    2.9296   -1.1046    0.3596 C   0  0  0  0  0  0
    2.3845   -0.0032    0.3026 O   0  0  0  0  0  0
    2.1620   -2.3591    0.6958 C   0  0  0  0  0  0
    4.5294    0.7238   -0.2229 H   0  0  0  0  0  0
    5.8710   -0.0275    0.6543 H   0  0  0  0  0  0
    5.6686   -0.3270   -1.0823 H   0  0  0  0  0  0
    4.6327   -2.2007    0.2226 H   0  0  0  0  0  0
    2.7202   -3.2690    0.4899 H   0  0  0  0  0  0
    1.2333   -2.3656    0.1315 H   0  0  0  0  0  0
    1.9028   -2.3356    1.7528 H   0  0  0  0  0  0
  1  2  1  0  0  0
  2  3  1  0  0  0
  3  4  2  0  0  0
  3  5  1  0  0  0
  1  6  1  0  0  0
  1  7  1  0  0  0
  1  8  1  0  0  0
  2  9  1  0  0  0
  5 10  1  0  0  0
  5 11  1  0  0  0
  5 12  1  0  0  0
 13 14  1  0  0  0
 14 15  1  0  0  0
 15 16  2  0  0  0
 15 17  1  0  0  0
 13 18  1  0  0  0
 13 19  1  0  0  0
 13 20  1  0  0  0
 14 21  1  0  0  0
 17 22  1  0  0  0
 17 23  1  0  0  0
 17 24  1  0  0  0
M  END
$$$$
