


 24 22  0  0  1  0            999 V2000
   -1.2270    0.0898   -1.3200 C   0  0  0  0  0  0
   -0.6701    0.0059    0.0098 N   0  0  0  0  0  0
   -1.4485   -0.2449    1.0918 C   0  0  0  0  0  0
   -2.6604   -0.4285    1.0344 O   0  0  0  0  0  0
   -0.7015   -0.2906    2.4069 C   0  0  0  0  0  0
   -2.2920   -0.1065   -1.2409 H   0  0  0  0  0  0
   -1.0778    1.0799   -1.7485 H   0  0  0  0  0  0
   -0.7766   -0.6480   -1.9834 H   0  0  0  0  0  0
    0.3267    0.1226    0.1416 H   0  0  0  0  0  0
   -1.1833    0.3956    3.0989 H   0  0  0  0  0  0
    0.3496   -0.0303    2.3078 H   0  0  0  0  0  0
   -0.7941   -1.2916    2.8240 H   0  0  0  0  0  0
    5.2416   -0.1730   -0.1355 C   0  0  0  0  0  0
    4.3544   -1.2794    0.1535 N   0  0  0  0  0  0
    3.0276   -1.1106    0.3672 C   0  0  0  0  0  0
    2.4824   -0.0092    0.3103 O   0  0  0  0  0  0
    2.2600   -2.3650    0.7035 C   0  0  0  0  0  0
    4.6274    0.7178   -0.2153 H   0  0  0  0  0  0
    5.9690   -0.0335    0.6619 H   0  0  0  0  0  0
    5.7666   -0.3329   -1.0746 H   0  0  0  0  0  0
    4.7307   -2.2067    0.2302 H   0  0  0  0  0  0
    2.8182   -3.2750    0.4976 H   0  0  0  0  0  0
    1.3313   -2.3716    0.1391 H   0  0  0  0  0  0
    2.0008   -2.3416    1.7604 H   0  0  0  0  0  0
  1  2  1  0  0  0
  2  3  1  0  0  0
  3  4  2  0  0  0
  3  5  1  0  0  0
  1  6  1  0  0  0
  1  7  1  0  0  0
  1  8  1  0  0  0
  2  9  1  0  0  0
  5 10  1  0  0  0
  5 11  1  0  0  0
  5 12  1  0  0  0
 13 14  1  0  0  0
 14 15  1  0  0  0
 15 16  2  0  0  0
 15 17  1  0  0  0
 13 18  1  0  0  0
 13 19  1  0  0  0
 13 20  1  0  0  0
 14 21  1  0  0  0
 17 22  1  0  0  0
 17 23  1  0  0  0
 17 24  1  0  0  0
M  END
$$$$
