


 24 22  0  0  1  0            999 V2000
   -1.2270    0.0898   -1.3200 C   0  0  0  0  0  0
   -0.6701    0.0059    0.0098 N   0  0  0  0  0  0
   -1.4485   -0.2449    1.0918 C   0  0  0  0  0  0
   -2.6604   -0.4285    1.0344 O   0  0  0  0  0  0
   -0.7015   -0.2906    2.4069 C   0  0  0  0  0  0
   -2.2920   -0.1065   -1.2409 H   0  0  0  0  0  0
   -1.0778    1.0799   -1.7485 H   0  0  0  0  0  0
   -0.7766   -0.6480   -1.9834 H   0  0  0  0  0  0
    0.3267    0.1226    0.1416 H   0  0  0  0  0  0
   -1.1833    0.3956    3.0989 H   0  0  0  0  0  0
    0.3496   -0.0303    2.3078 H   0  0  0  0  0  0
   -0.7941   -1.2916    2.8240 H   0  0  0  0  0  0
    4.8497   -0.1490   -0.1661 C   0  0  0  0  0  0
    3.9625   -1.2555    0.1228 N   0  0  0  0  0  0
    2.6357   -1.0867    0.3366 C   0  0  0  0  0  0
    2.0905    0.0148    0.2796 O   0  0  0  0  0  0
    1.8680   -2.3411    0.6728 C   0  0  0  0  0  0
    4.2355    0.7418   -0.2459 H   0  0  0  0  0  0
    5.5771   -0.0095    0.6313 H   0  0  0  0  0  0
    5.3747   -0.3090   -1.1053 H   0  0  0  0  0  0
    4.3388   -2.1827    0.1996 H   0  0  0  0  0  0
    2.4263   -3.2511    0.4669 H   0  0  0  0  0  0
    0.9394   -2.3476    0.1085 H   0  0  0  0  0  0
    1.6088   -2.3176    1.7298 H   0  0  0  0  0  0
  1  2  1  0  0  0
  2  3  1  0  0  0
  3  4  2  0  0  0
  3  5  1  0  0  0
  1  6  1  0  0  0
  1  7  1  0  0  0
  1  8  1  0  0  0
  2  9  1  0  0  0
  5 10  1  0  0  0
  5 11  1  0  0  0
  5 12  1  0  0  0
 13 14  1  0  0  0
 14 15  1  0  0  0
 15 16  2  0  0  0
 15 17  1  0  0  0
 13 18  1  0  0  0
 13 19  1  0  0  0
 13 20  1  0  0  0
 14 21  1  0  0  0
 17 22  1  0  0  0
 17 23  1  0  0  0
 17 24  1  0  0  0
M  END
$$$$
