


 24 22  0  0  1  0            999 V2000
   -1.2270    0.0898   -1.3200 C   0  0  0  0  0  0
   -0.6701    0.0059    0.0098 N   0  0  0  0  0  0
   -1.4485   -0.2449    1.0918 C   0  0  0  0  0  0
   -2.6604   -0.4285    1.0344 O   0  0  0  0  0  0
   -0.7015   -0.2906    2.4069 C   0  0  0  0  0  0
   -2.2920   -0.1065   -1.2409 H   0  0  0  0  0  0
   -1.0778    1.0799   -1.7485 H   0  0  0  0  0  0
   -0.7766   -0.6480   -1.9834 H   0  0  0  0  0  0
    0.3267    0.1226    0.1416 H   0  0  0  0  0  0
   -1.1833    0.3956    3.0989 H   0  0  0  0  0  0
    0.3496   -0.0303    2.3078 H   0  0  0  0  0  0
   -0.7941   -1.2916    2.8240 H   0  0  0  0  0  0
    5.5356   -0.1909   -0.1125 C   0  0  0  0  0  0
    4.6483   -1.2974    0.1765 N   0  0  0  0  0  0
    3.3216   -1.1286    0.3902 C   0  0  0  0  0  0
    2.7764   -0.0271    0.3333 O   0  0  0  0  0  0
    2.5540   -2.3830    0.7265 C   0  0  0  0  0  0
    4.9214    0.6999   -0.1923 H   0  0  0  0  0  0
    6.2630   -0.0515    0.6849 H   0  0  0  0  0  0
    6.0606   -0.3509   -1.0516 H   0  0  0  0  0  0
    5.0247   -2.2246    0.2532 H   0  0  0  0  0  0
    3.1122   -3.2930    0.5206 H   0  0  0  0  0  0
    1.6252   -2.3895    0.1621 H   0  0  0  0  0  0
    2.2947   -2.3595    1.7834 H   0  0  0  0  0  0
  1  2  1  0  0  0
  2  3  1  0  0  0
  3  4  2  0  0  0
  3  5  1  0  0  0
  1  6  1  0  0  0
  1  7  1  0  0  0
  1  8  1  0  0  0
  2  9  1  0  0  0
  5 10  1  0  0  0
  5 11  1  0  0  0
  5 12  1  0  0  0
 13 14  1  0  0  0
 14 15  1  0  0  0
 15 16  2  0  0  0
 15 17  1  0  0  0
 13 18  1  0  0  0
 13 19  1  0  0  0
 13 20  1  0  0  0
 14 21  1  0  0  0
 17 22  1  0  0  0
 17 23  1  0  0  0
 17 24  1  0  0  0
M  END
$$$$
