


 24 22  0  0  1  0            999 V2000
   -1.2270    0.0898   -1.3200 C   0  0  0  0  0  0
   -0.6701    0.0059    0.0098 N   0  0  0  0  0  0
   -1.4485   -0.2449    1.0918 C   0  0  0  0  0  0
   -2.6604   -0.4285    1.0344 O   0  0  0  0  0  0
   -0.7015   -0.2906    2.4069 C   0  0  0  0  0  0
   -2.2920   -0.1065   -1.2409 H   0  0  0  0  0  0
   -1.0778    1.0799   -1.7485 H   0  0  0  0  0  0
   -0.7766   -0.6480   -1.9834 H   0  0  0  0  0  0
    0.3267    0.1226    0.1416 H   0  0  0  0  0  0
   -1.1833    0.3956    3.0989 H   0  0  0  0  0  0
    0.3496   -0.0303    2.3078 H   0  0  0  0  0  0
   -0.7941   -1.2916    2.8240 H   0  0  0  0  0  0
    7.1807   -0.2915    0.0162 C   0  0  0  0  0  0
    6.2935   -1.3979    0.3052 N   0  0  0  0  0  0
    4.9667   -1.2291    0.5189 C   0  0  0  0  0  0
    4.4215   -0.1277    0.4620 O   0  0  0  0  0  0
    4.1991   -2.4835    0.8552 C   0  0  0  0  0  0
    6.5665    0.5993   -0.0636 H   0  0  0  0  0  0
    7.9081   -0.1520    0.8137 H   0  0  0  0  0  0
    7.7057   -0.4515   -0.9229 H   0  0  0  0  0  0
    6.6698   -2.3252    0.3820 H   0  0  0  0  0  0
    4.7573   -3.3935    0.6493 H   0  0  0  0  0  0
    3.2704   -2.4901    0.2909 H   0  0  0  0  0  0
    3.9399   -2.4601    1.9121 H   0  0  0  0  0  0
  1  2  1  0  0  0
  2  3  1  0  0  0
  3  4  2  0  0  0
  3  5  1  0  0  0
  1  6  1  0  0  0
  1  7  1  0  0  0
  1  8  1  0  0  0
  2  9  1  0  0  0
  5 10  1  0  0  0
  5 11  1  0  0  0
  5 12  1  0  0  0
 13 14  1  0  0  0
 14 15  1  0  0  0
 15 16  2  0  0  0
 15 17  1  0  0  0
 13 18  1  0  0  0
 13 19  1  0  0  0
 13 20  1  0  0  0
 14 21  1  0  0  0
 17 22  1  0  0  0
 17 23  1  0  0  0
 17 24  1  0  0  0
M  END
$$$$
