


 24 22  0  0  1  0            999 V2000
   -1.2270    0.0898   -1.3200 C   0  0  0  0  0  0
   -0.6701    0.0059    0.0098 N   0  0  0  0  0  0
   -1.4485   -0.2449    1.0918 C   0  0  0  0  0  0
   -2.6604   -0.4285    1.0344 O   0  0  0  0  0  0
   -0.7015   -0.2906    2.4069 C   0  0  0  0  0  0
   -2.2920   -0.1065   -1.2409 H   0  0  0  0  0  0
   -1.0778    1.0799   -1.7485 H   0  0  0  0  0  0
   -0.7766   -0.6480   -1.9834 H   0  0  0  0  0  0
    0.3267    0.1226    0.1416 H   0  0  0  0  0  0
   -1.1833    0.3956    3.0989 H   0  0  0  0  0  0
    0.3496   -0.0303    2.3078 H   0  0  0  0  0  0
   -0.7941   -1.2916    2.8240 H   0  0  0  0  0  0
    5.0455   -0.1610   -0.1508 C   0  0  0  0  0  0
    4.1583   -1.2674    0.1382 N   0  0  0  0  0  0
    2.8316   -1.0986    0.3519 C   0  0  0  0  0  0
    2.2864    0.0028    0.2949 O   0  0  0  0  0  0
    2.0639   -2.3530    0.6881 C   0  0  0  0  0  0
    4.4314    0.7298   -0.2306 H   0  0  0  0  0  0
    5.7730   -0.0215    0.6466 H   0  0  0  0  0  0
    5.5705   -0.3210   -1.0899 H   0  0  0  0  0  0
    4.5346   -2.1947    0.2149 H   0  0  0  0  0  0
    2.6221   -3.2631    0.4822 H   0  0  0  0  0  0
    1.1352   -2.3596    0.1238 H   0  0  0  0  0  0
    1.8047   -2.3296    1.7451 H   0  0  0  0  0  0
  1  2  1  0  0  0
  2  3  1  0  0  0
  3  4  2  0  0  0
  3  5  1  0  0  0
  1  6  1  0  0  0
  1  7  1  0  0  0
  1  8  1  0  0  0
  2  9  1  0  0  0
  5 10  1  0  0  0
  5 11  1  0  0  0
  5 12  1  0  0  0
 13 14  1  0  0  0
 14 15  1  0  0  0
 15 16  2  0  0  0
 15 17  1  0  0  0
 13 18  1  0  0  0
 13 19  1  0  0  0
 13 20  1  0  0  0
 14 21  1  0  0  0
 17 22  1  0  0  0
 17 23  1  0  0  0
 17 24  1  0  0  0
M  END
$$$$
