


 24 22  0  0  1  0            999 V2000
   -1.2270    0.0898   -1.3200 C   0  0  0  0  0  0
   -0.6701    0.0059    0.0098 N   0  0  0  0  0  0
   -1.4485   -0.2449    1.0918 C   0  0  0  0  0  0
   -2.6604   -0.4285    1.0344 O   0  0  0  0  0  0
   -0.7015   -0.2906    2.4069 C   0  0  0  0  0  0
   -2.2920   -0.1065   -1.2409 H   0  0  0  0  0  0
   -1.0778    1.0799   -1.7485 H   0  0  0  0  0  0
   -0.7766   -0.6480   -1.9834 H   0  0  0  0  0  0
    0.3267    0.1226    0.1416 H   0  0  0  0  0  0
   -1.1833    0.3956    3.0989 H   0  0  0  0  0  0
    0.3496   -0.0303    2.3078 H   0  0  0  0  0  0
   -0.7941   -1.2916    2.8240 H   0  0  0  0  0  0
    6.0255   -0.2209   -0.0741 C   0  0  0  0  0  0
    5.1383   -1.3273    0.2148 N   0  0  0  0  0  0
    3.8115   -1.1585    0.4286 C   0  0  0  0  0  0
    3.2663   -0.0571    0.3716 O   0  0  0  0  0  0
    3.0439   -2.4129    0.7648 C   0  0  0  0  0  0
    5.4113    0.6699   -0.1540 H   0  0  0  0  0  0
    6.7529   -0.0814    0.7233 H   0  0  0  0  0  0
    6.5505   -0.3809   -1.0133 H   0  0  0  0  0  0
    5.5146   -2.2546    0.2916 H   0  0  0  0  0  0
    3.6021   -3.3229    0.5589 H   0  0  0  0  0  0
    2.1152   -2.4195    0.2005 H   0  0  0  0  0  0
    2.7847   -2.3895    1.8217 H   0  0  0  0  0  0
  1  2  1  0  0  0
  2  3  1  0  0  0
  3  4  2  0  0  0
  3  5  1  0  0  0
  1  6  1  0  0  0
  1  7  1  0  0  0
  1  8  1  0  0  0
  2  9  1  0  0  0
  5 10  1  0  0  0
  5 11  1  0  0  0
  5 12  1  0  0  0
 13 14  1  0  0  0
 14 15  1  0  0  0
 15 16  2  0  0  0
 15 17  1  0  0  0
 13 18  1  0  0  0
 13 19  1  0  0  0
 13 20  1  0  0  0
 14 21  1  0  0  0
 17 22  1  0  0  0
 17 23  1  0  0  0
 17 24  1  0  0  0
M  END
$$$$
