


 24 22  0  0  1  0            999 V2000
   -1.2270    0.0898   -1.3200 C   0  0  0  0  0  0
   -0.6701    0.0059    0.0098 N   0  0  0  0  0  0
   -1.4485   -0.2449    1.0918 C   0  0  0  0  0  0
   -2.6604   -0.4285    1.0344 O   0  0  0  0  0  0
   -0.7015   -0.2906    2.4069 C   0  0  0  0  0  0
   -2.2920   -0.1065   -1.2409 H   0  0  0  0  0  0
   -1.0778    1.0799   -1.7485 H   0  0  0  0  0  0
   -0.7766   -0.6480   -1.9834 H   0  0  0  0  0  0
    0.3267    0.1226    0.1416 H   0  0  0  0  0  0
   -1.1833    0.3956    3.0989 H   0  0  0  0  0  0
    0.3496   -0.0303    2.3078 H   0  0  0  0  0  0
   -0.7941   -1.2916    2.8240 H   0  0  0  0  0  0
    4.9477   -0.1550   -0.1585 C   0  0  0  0  0  0
    4.0604   -1.2615    0.1305 N   0  0  0  0  0  0
    2.7337   -1.0927    0.3442 C   0  0  0  0  0  0
    2.1885    0.0088    0.2873 O   0  0  0  0  0  0
    1.9660   -2.3471    0.6805 C   0  0  0  0  0  0
    4.3335    0.7358   -0.2383 H   0  0  0  0  0  0
    5.6751   -0.0155    0.6389 H   0  0  0  0  0  0
    5.4727   -0.3150   -1.0976 H   0  0  0  0  0  0
    4.4367   -2.1887    0.2072 H   0  0  0  0  0  0
    2.5243   -3.2571    0.4746 H   0  0  0  0  0  0
    1.0373   -2.3536    0.1161 H   0  0  0  0  0  0
    1.7068   -2.3236    1.7374 H   0  0  0  0  0  0
  1  2  1  0  0  0
  2  3  1  0  0  0
  3  4  2  0  0  0
  3  5  1  0  0  0
  1  6  1  0  0  0
  1  7  1  0  0  0
  1  8  1  0  0  0
  2  9  1  0  0  0
  5 10  1  0  0  0
  5 11  1  0  0  0
  5 12  1  0  0  0
 13 14  1  0  0  0
 14 15  1  0  0  0
 15 16  2  0  0  0
 15 17  1  0  0  0
 13 18  1  0  0  0
 13 19  1  0  0  0
 13 20  1  0  0  0
 14 21  1  0  0  0
 17 22  1  0  0  0
 17 23  1  0  0  0
 17 24  1  0  0  0
M  END
$$$$
