


 34 32  0  0  1  0            999 V2000
   -2.5333   -0.2949    0.7132 C   0  0  0  0  0  0
   -1.2719    0.5577    0.6744 C   0  0  0  0  0  0
   -0.0001   -0.2784    0.7196 C   0  0  0  0  0  0
    1.2719    0.5574    0.6741 C   0  0  0  0  0  0
    2.5334   -0.2949    0.7133 C   0  0  0  0  0  0
   -2.5636   -0.9771   -0.1364 H   0  0  0  0  0  0
   -2.5670   -0.8959    1.6217 H   0  0  0  0  0  0
   -3.4344    0.3160    0.6841 H   0  0  0  0  0  0
   -1.2710    1.2566    1.5143 H   0  0  0  0  0  0
   -1.2666    1.1679   -0.2318 H   0  0  0  0  0  0
   -0.0002   -0.8872    1.6286 H   0  0  0  0  0  0
   -0.0004   -0.9807   -0.1194 H   0  0  0  0  0  0
    1.2710    1.2566    1.5137 H   0  0  0  0  0  0
    1.2666    1.1672   -0.2324 H   0  0  0  0  0  0
    2.5639   -0.9778   -0.1358 H   0  0  0  0  0  0
    3.4343    0.3162    0.6836 H   0  0  0  0  0  0
    2.5676   -0.8952    1.6223 H   0  0  0  0  0  0
    2.5336    0.2917    4.6772 C   0  0  0  0  0  0
    1.2717   -0.5602    4.7165 C   0  0  0  0  0  0
   -0.0000    0.2759    4.6709 C   0  0  0  0  0  0
   -1.2718   -0.5602    4.7162 C   0  0  0  0  0  0
   -2.5335    0.2918    4.6772 C   0  0  0  0  0  0
    2.5681    0.8915    3.7679 H   0  0  0  0  0  0
    2.5641    0.9749    5.5260 H   0  0  0  0  0  0
    3.4342   -0.3198    4.7074 H   0  0  0  0  0  0
    1.2663   -1.1699    5.6230 H   0  0  0  0  0  0
    1.2706   -1.2596    3.8770 H   0  0  0  0  0  0
   -0.0002    0.9782    5.5099 H   0  0  0  0  0  0
    0.0000    0.8847    3.7619 H   0  0  0  0  0  0
   -1.2664   -1.1704    5.6224 H   0  0  0  0  0  0
   -1.2707   -1.2593    3.8763 H   0  0  0  0  0  0
   -2.5677    0.8923    3.7683 H   0  0  0  0  0  0
   -3.4343   -0.3195    4.7067 H   0  0  0  0  0  0
   -2.5641    0.9744    5.5265 H   0  0  0  0  0  0
  1  2  1  0  0  0
  2  3  1  0  0  0
  3  4  1  0  0  0
  4  5  1  0  0  0
  1  6  1  0  0  0
  1  7  1  0  0  0
  1  8  1  0  0  0
  2  9  1  0  0  0
  2 10  1  0  0  0
  3 11  1  0  0  0
  3 12  1  0  0  0
  4 13  1  0  0  0
  4 14  1  0  0  0
  5 15  1  0  0  0
  5 16  1  0  0  0
  5 17  1  0  0  0
 18 19  1  0  0  0
 19 20  1  0  0  0
 20 21  1  0  0  0
 21 22  1  0  0  0
 18 23  1  0  0  0
 18 24  1  0  0  0
 18 25  1  0  0  0
 19 26  1  0  0  0
 19 27  1  0  0  0
 20 28  1  0  0  0
 20 29  1  0  0  0
 21 30  1  0  0  0
 21 31  1  0  0  0
 22 32  1  0  0  0
 22 33  1  0  0  0
 22 34  1  0  0  0
M  END
$$$$
