


 34 32  0  0  1  0            999 V2000
   -2.5333   -0.2949    0.7132 C   0  0  0  0  0  0
   -1.2719    0.5577    0.6744 C   0  0  0  0  0  0
   -0.0001   -0.2784    0.7196 C   0  0  0  0  0  0
    1.2719    0.5574    0.6741 C   0  0  0  0  0  0
    2.5334   -0.2949    0.7133 C   0  0  0  0  0  0
   -2.5636   -0.9771   -0.1364 H   0  0  0  0  0  0
   -2.5670   -0.8959    1.6217 H   0  0  0  0  0  0
   -3.4344    0.3160    0.6841 H   0  0  0  0  0  0
   -1.2710    1.2566    1.5143 H   0  0  0  0  0  0
   -1.2666    1.1679   -0.2318 H   0  0  0  0  0  0
   -0.0002   -0.8872    1.6286 H   0  0  0  0  0  0
   -0.0004   -0.9807   -0.1194 H   0  0  0  0  0  0
    1.2710    1.2566    1.5137 H   0  0  0  0  0  0
    1.2666    1.1672   -0.2324 H   0  0  0  0  0  0
    2.5639   -0.9778   -0.1358 H   0  0  0  0  0  0
    3.4343    0.3162    0.6836 H   0  0  0  0  0  0
    2.5676   -0.8952    1.6223 H   0  0  0  0  0  0
    2.5336    0.2946    4.5322 C   0  0  0  0  0  0
    1.2717   -0.5573    4.5715 C   0  0  0  0  0  0
   -0.0000    0.2788    4.5259 C   0  0  0  0  0  0
   -1.2718   -0.5573    4.5712 C   0  0  0  0  0  0
   -2.5335    0.2948    4.5322 C   0  0  0  0  0  0
    2.5681    0.8944    3.6229 H   0  0  0  0  0  0
    2.5641    0.9778    5.3810 H   0  0  0  0  0  0
    3.4342   -0.3169    4.5624 H   0  0  0  0  0  0
    1.2663   -1.1670    5.4780 H   0  0  0  0  0  0
    1.2706   -1.2566    3.7320 H   0  0  0  0  0  0
   -0.0002    0.9811    5.3649 H   0  0  0  0  0  0
    0.0000    0.8876    3.6168 H   0  0  0  0  0  0
   -1.2664   -1.1674    5.4774 H   0  0  0  0  0  0
   -1.2707   -1.2563    3.7313 H   0  0  0  0  0  0
   -2.5677    0.8953    3.6233 H   0  0  0  0  0  0
   -3.4343   -0.3165    4.5617 H   0  0  0  0  0  0
   -2.5641    0.9773    5.3815 H   0  0  0  0  0  0
  1  2  1  0  0  0
  2  3  1  0  0  0
  3  4  1  0  0  0
  4  5  1  0  0  0
  1  6  1  0  0  0
  1  7  1  0  0  0
  1  8  1  0  0  0
  2  9  1  0  0  0
  2 10  1  0  0  0
  3 11  1  0  0  0
  3 12  1  0  0  0
  4 13  1  0  0  0
  4 14  1  0  0  0
  5 15  1  0  0  0
  5 16  1  0  0  0
  5 17  1  0  0  0
 18 19  1  0  0  0
 19 20  1  0  0  0
 20 21  1  0  0  0
 21 22  1  0  0  0
 18 23  1  0  0  0
 18 24  1  0  0  0
 18 25  1  0  0  0
 19 26  1  0  0  0
 19 27  1  0  0  0
 20 28  1  0  0  0
 20 29  1  0  0  0
 21 30  1  0  0  0
 21 31  1  0  0  0
 22 32  1  0  0  0
 22 33  1  0  0  0
 22 34  1  0  0  0
M  END
$$$$
