


 34 32  0  0  1  0            999 V2000
   -2.5333   -0.2949    0.7132 C   0  0  0  0  0  0
   -1.2719    0.5577    0.6744 C   0  0  0  0  0  0
   -0.0001   -0.2784    0.7196 C   0  0  0  0  0  0
    1.2719    0.5574    0.6741 C   0  0  0  0  0  0
    2.5334   -0.2949    0.7133 C   0  0  0  0  0  0
   -2.5636   -0.9771   -0.1364 H   0  0  0  0  0  0
   -2.5670   -0.8959    1.6217 H   0  0  0  0  0  0
   -3.4344    0.3160    0.6841 H   0  0  0  0  0  0
   -1.2710    1.2566    1.5143 H   0  0  0  0  0  0
   -1.2666    1.1679   -0.2318 H   0  0  0  0  0  0
   -0.0002   -0.8872    1.6286 H   0  0  0  0  0  0
   -0.0004   -0.9807   -0.1194 H   0  0  0  0  0  0
    1.2710    1.2566    1.5137 H   0  0  0  0  0  0
    1.2666    1.1672   -0.2324 H   0  0  0  0  0  0
    2.5639   -0.9778   -0.1358 H   0  0  0  0  0  0
    3.4343    0.3162    0.6836 H   0  0  0  0  0  0
    2.5676   -0.8952    1.6223 H   0  0  0  0  0  0
    2.5336    0.3007    4.2333 C   0  0  0  0  0  0
    1.2717   -0.5512    4.2726 C   0  0  0  0  0  0
   -0.0000    0.2849    4.2270 C   0  0  0  0  0  0
   -1.2718   -0.5512    4.2722 C   0  0  0  0  0  0
   -2.5335    0.3008    4.2333 C   0  0  0  0  0  0
    2.5681    0.9005    3.3240 H   0  0  0  0  0  0
    2.5641    0.9839    5.0820 H   0  0  0  0  0  0
    3.4342   -0.3108    4.2635 H   0  0  0  0  0  0
    1.2663   -1.1609    5.1791 H   0  0  0  0  0  0
    1.2706   -1.2505    3.4330 H   0  0  0  0  0  0
   -0.0002    0.9872    5.0659 H   0  0  0  0  0  0
    0.0000    0.8937    3.3179 H   0  0  0  0  0  0
   -1.2664   -1.1613    5.1785 H   0  0  0  0  0  0
   -1.2707   -1.2502    3.4324 H   0  0  0  0  0  0
   -2.5677    0.9014    3.3244 H   0  0  0  0  0  0
   -3.4343   -0.3105    4.2628 H   0  0  0  0  0  0
   -2.5641    0.9834    5.0825 H   0  0  0  0  0  0
  1  2  1  0  0  0
  2  3  1  0  0  0
  3  4  1  0  0  0
  4  5  1  0  0  0
  1  6  1  0  0  0
  1  7  1  0  0  0
  1  8  1  0  0  0
  2  9  1  0  0  0
  2 10  1  0  0  0
  3 11  1  0  0  0
  3 12  1  0  0  0
  4 13  1  0  0  0
  4 14  1  0  0  0
  5 15  1  0  0  0
  5 16  1  0  0  0
  5 17  1  0  0  0
 18 19  1  0  0  0
 19 20  1  0  0  0
 20 21  1  0  0  0
 21 22  1  0  0  0
 18 23  1  0  0  0
 18 24  1  0  0  0
 18 25  1  0  0  0
 19 26  1  0  0  0
 19 27  1  0  0  0
 20 28  1  0  0  0
 20 29  1  0  0  0
 21 30  1  0  0  0
 21 31  1  0  0  0
 22 32  1  0  0  0
 22 33  1  0  0  0
 22 34  1  0  0  0
M  END
$$$$
