


 13 11  0  0  1  0            999 V2000
    2.5131   -1.4132    0.0345 C   0  0  0  0  0  0
    2.0354   -0.0271   -0.0029 N   0  0  0  0  0  0
    2.1212   -1.9472   -0.8277 H   0  0  0  0  0  0
    3.5998   -1.5199    0.0376 H   0  0  0  0  0  0
    2.1210   -1.8999    0.9242 H   0  0  0  0  0  0
    2.4060    0.4806    0.7902 H   0  0  0  0  0  0
    2.4061    0.4372   -0.8222 H   0  0  0  0  0  0
   -1.0767   -1.3139    0.0016 C   0  0  0  0  0  0
   -0.7069    0.0458    0.0064 O   0  0  0  0  0  0
   -2.1629   -1.3632    0.0059 H   0  0  0  0  0  0
   -0.7234   -1.8447   -0.8877 H   0  0  0  0  0  0
   -0.7161   -1.8528    0.8831 H   0  0  0  0  0  0
    0.2656    0.0717    0.0013 H   0  0  0  0  0  0
  1  2  1  0  0  0
  1  3  1  0  0  0
  1  4  1  0  0  0
  1  5  1  0  0  0
  2  6  1  0  0  0
  2  7  1  0  0  0
  8  9  1  0  0  0
  8 10  1  0  0  0
  8 11  1  0  0  0
  8 12  1  0  0  0
  9 13  1  0  0  0
M  END
$$$$
