


 13 11  0  0  1  0            999 V2000
   -1.1758    0.7579    1.1452 C   0  0  0  0  0  0
   -0.8935   -0.0438   -0.0430 N   0  0  0  0  0  0
   -2.2416    0.9722    1.1950 H   0  0  0  0  0  0
   -0.8808    0.3043    2.0972 H   0  0  0  0  0  0
   -0.6630    1.7143    1.0608 H   0  0  0  0  0  0
    0.0970   -0.2561   -0.0711 H   0  0  0  0  0  0
   -1.3684   -0.9334    0.0338 H   0  0  0  0  0  0
    2.6205    0.8594    1.0450 C   0  0  0  0  0  0
    2.2346   -0.0522    0.0256 O   0  0  0  0  0  0
    2.2974    0.4297    1.9881 H   0  0  0  0  0  0
    3.7016    0.9984    1.0841 H   0  0  0  0  0  0
    2.1421    1.8329    0.9298 H   0  0  0  0  0  0
    2.5166    0.3177   -0.8143 H   0  0  0  0  0  0
  1  2  1  0  0  0
  1  3  1  0  0  0
  1  4  1  0  0  0
  1  5  1  0  0  0
  2  6  1  0  0  0
  2  7  1  0  0  0
  8  9  1  0  0  0
  8 10  1  0  0  0
  8 11  1  0  0  0
  8 12  1  0  0  0
  9 13  1  0  0  0
M  END
$$$$
