


 13 11  0  0  1  0            999 V2000
   -1.1758    0.7579    1.1452 C   0  0  0  0  0  0
   -0.8935   -0.0438   -0.0430 N   0  0  0  0  0  0
   -2.2416    0.9722    1.1950 H   0  0  0  0  0  0
   -0.8808    0.3043    2.0972 H   0  0  0  0  0  0
   -0.6630    1.7143    1.0608 H   0  0  0  0  0  0
    0.0970   -0.2561   -0.0711 H   0  0  0  0  0  0
   -1.3684   -0.9334    0.0338 H   0  0  0  0  0  0
    3.2956    0.9237    1.0755 C   0  0  0  0  0  0
    2.9097    0.0121    0.0561 O   0  0  0  0  0  0
    2.9724    0.4941    2.0186 H   0  0  0  0  0  0
    4.3766    1.0628    1.1146 H   0  0  0  0  0  0
    2.8171    1.8973    0.9603 H   0  0  0  0  0  0
    3.1917    0.3821   -0.7838 H   0  0  0  0  0  0
  1  2  1  0  0  0
  1  3  1  0  0  0
  1  4  1  0  0  0
  1  5  1  0  0  0
  2  6  1  0  0  0
  2  7  1  0  0  0
  8  9  1  0  0  0
  8 10  1  0  0  0
  8 11  1  0  0  0
  8 12  1  0  0  0
  9 13  1  0  0  0
M  END
$$$$
