


 13 11  0  0  1  0            999 V2000
    4.6761   -1.5340    0.0293 C   0  0  0  0  0  0
    4.1983   -0.1480   -0.0082 N   0  0  0  0  0  0
    4.2842   -2.0680   -0.8329 H   0  0  0  0  0  0
    5.7628   -1.6408    0.0323 H   0  0  0  0  0  0
    4.2839   -2.0207    0.9189 H   0  0  0  0  0  0
    4.5689    0.3598    0.7850 H   0  0  0  0  0  0
    4.5690    0.3164   -0.8274 H   0  0  0  0  0  0
   -1.0767   -1.3139    0.0016 C   0  0  0  0  0  0
   -0.7069    0.0458    0.0064 O   0  0  0  0  0  0
   -2.1629   -1.3632    0.0059 H   0  0  0  0  0  0
   -0.7234   -1.8447   -0.8877 H   0  0  0  0  0  0
   -0.7161   -1.8528    0.8831 H   0  0  0  0  0  0
    0.2656    0.0717    0.0013 H   0  0  0  0  0  0
  1  2  1  0  0  0
  1  3  1  0  0  0
  1  4  1  0  0  0
  1  5  1  0  0  0
  2  6  1  0  0  0
  2  7  1  0  0  0
  8  9  1  0  0  0
  8 10  1  0  0  0
  8 11  1  0  0  0
  8 12  1  0  0  0
  9 13  1  0  0  0
M  END
$$$$
