


 13 11  0  0  1  0            999 V2000
    3.2013   -1.4516    0.0329 C   0  0  0  0  0  0
    2.7236   -0.0656   -0.0046 N   0  0  0  0  0  0
    2.8094   -1.9857   -0.8293 H   0  0  0  0  0  0
    4.2881   -1.5584    0.0359 H   0  0  0  0  0  0
    2.8092   -1.9384    0.9225 H   0  0  0  0  0  0
    3.0942    0.4422    0.7885 H   0  0  0  0  0  0
    3.0943    0.3987   -0.8239 H   0  0  0  0  0  0
   -1.0767   -1.3139    0.0016 C   0  0  0  0  0  0
   -0.7069    0.0458    0.0064 O   0  0  0  0  0  0
   -2.1629   -1.3632    0.0059 H   0  0  0  0  0  0
   -0.7234   -1.8447   -0.8877 H   0  0  0  0  0  0
   -0.7161   -1.8528    0.8831 H   0  0  0  0  0  0
    0.2656    0.0717    0.0013 H   0  0  0  0  0  0
  1  2  1  0  0  0
  1  3  1  0  0  0
  1  4  1  0  0  0
  1  5  1  0  0  0
  2  6  1  0  0  0
  2  7  1  0  0  0
  8  9  1  0  0  0
  8 10  1  0  0  0
  8 11  1  0  0  0
  8 12  1  0  0  0
  9 13  1  0  0  0
M  END
$$$$
