


 13 11  0  0  1  0            999 V2000
    2.6114   -1.4187    0.0343 C   0  0  0  0  0  0
    2.1337   -0.0327   -0.0032 N   0  0  0  0  0  0
    2.2196   -1.9527   -0.8279 H   0  0  0  0  0  0
    3.6982   -1.5254    0.0373 H   0  0  0  0  0  0
    2.2193   -1.9054    0.9239 H   0  0  0  0  0  0
    2.5043    0.4751    0.7900 H   0  0  0  0  0  0
    2.5044    0.4317   -0.8224 H   0  0  0  0  0  0
   -1.0767   -1.3139    0.0016 C   0  0  0  0  0  0
   -0.7069    0.0458    0.0064 O   0  0  0  0  0  0
   -2.1629   -1.3632    0.0059 H   0  0  0  0  0  0
   -0.7234   -1.8447   -0.8877 H   0  0  0  0  0  0
   -0.7161   -1.8528    0.8831 H   0  0  0  0  0  0
    0.2656    0.0717    0.0013 H   0  0  0  0  0  0
  1  2  1  0  0  0
  1  3  1  0  0  0
  1  4  1  0  0  0
  1  5  1  0  0  0
  2  6  1  0  0  0
  2  7  1  0  0  0
  8  9  1  0  0  0
  8 10  1  0  0  0
  8 11  1  0  0  0
  8 12  1  0  0  0
  9 13  1  0  0  0
M  END
$$$$
