


 13 11  0  0  1  0            999 V2000
    2.9064   -1.4352    0.0336 C   0  0  0  0  0  0
    2.4286   -0.0491   -0.0039 N   0  0  0  0  0  0
    2.5145   -1.9692   -0.8286 H   0  0  0  0  0  0
    3.9931   -1.5419    0.0366 H   0  0  0  0  0  0
    2.5143   -1.9219    0.9232 H   0  0  0  0  0  0
    2.7993    0.4586    0.7892 H   0  0  0  0  0  0
    2.7994    0.4152   -0.8231 H   0  0  0  0  0  0
   -1.0767   -1.3139    0.0016 C   0  0  0  0  0  0
   -0.7069    0.0458    0.0064 O   0  0  0  0  0  0
   -2.1629   -1.3632    0.0059 H   0  0  0  0  0  0
   -0.7234   -1.8447   -0.8877 H   0  0  0  0  0  0
   -0.7161   -1.8528    0.8831 H   0  0  0  0  0  0
    0.2656    0.0717    0.0013 H   0  0  0  0  0  0
  1  2  1  0  0  0
  1  3  1  0  0  0
  1  4  1  0  0  0
  1  5  1  0  0  0
  2  6  1  0  0  0
  2  7  1  0  0  0
  8  9  1  0  0  0
  8 10  1  0  0  0
  8 11  1  0  0  0
  8 12  1  0  0  0
  9 13  1  0  0  0
M  END
$$$$
