


 13 11  0  0  1  0            999 V2000
    2.8081   -1.4297    0.0338 C   0  0  0  0  0  0
    2.3303   -0.0436   -0.0037 N   0  0  0  0  0  0
    2.4162   -1.9637   -0.8284 H   0  0  0  0  0  0
    3.8948   -1.5364    0.0369 H   0  0  0  0  0  0
    2.4160   -1.9164    0.9234 H   0  0  0  0  0  0
    2.7009    0.4642    0.7895 H   0  0  0  0  0  0
    2.7011    0.4207   -0.8229 H   0  0  0  0  0  0
   -1.0767   -1.3139    0.0016 C   0  0  0  0  0  0
   -0.7069    0.0458    0.0064 O   0  0  0  0  0  0
   -2.1629   -1.3632    0.0059 H   0  0  0  0  0  0
   -0.7234   -1.8447   -0.8877 H   0  0  0  0  0  0
   -0.7161   -1.8528    0.8831 H   0  0  0  0  0  0
    0.2656    0.0717    0.0013 H   0  0  0  0  0  0
  1  2  1  0  0  0
  1  3  1  0  0  0
  1  4  1  0  0  0
  1  5  1  0  0  0
  2  6  1  0  0  0
  2  7  1  0  0  0
  8  9  1  0  0  0
  8 10  1  0  0  0
  8 11  1  0  0  0
  8 12  1  0  0  0
  9 13  1  0  0  0
M  END
$$$$
