


 13 11  0  0  1  0            999 V2000
    2.7097   -1.4242    0.0340 C   0  0  0  0  0  0
    2.2319   -0.0381   -0.0034 N   0  0  0  0  0  0
    2.3178   -1.9582   -0.8281 H   0  0  0  0  0  0
    3.7964   -1.5309    0.0371 H   0  0  0  0  0  0
    2.3175   -1.9109    0.9237 H   0  0  0  0  0  0
    2.6025    0.4696    0.7897 H   0  0  0  0  0  0
    2.6027    0.4262   -0.8227 H   0  0  0  0  0  0
   -1.0767   -1.3139    0.0016 C   0  0  0  0  0  0
   -0.7069    0.0458    0.0064 O   0  0  0  0  0  0
   -2.1629   -1.3632    0.0059 H   0  0  0  0  0  0
   -0.7234   -1.8447   -0.8877 H   0  0  0  0  0  0
   -0.7161   -1.8528    0.8831 H   0  0  0  0  0  0
    0.2656    0.0717    0.0013 H   0  0  0  0  0  0
  1  2  1  0  0  0
  1  3  1  0  0  0
  1  4  1  0  0  0
  1  5  1  0  0  0
  2  6  1  0  0  0
  2  7  1  0  0  0
  8  9  1  0  0  0
  8 10  1  0  0  0
  8 11  1  0  0  0
  8 12  1  0  0  0
  9 13  1  0  0  0
M  END
$$$$
