


 13 11  0  0  1  0            999 V2000
    3.6929   -1.4791    0.0317 C   0  0  0  0  0  0
    3.2152   -0.0931   -0.0058 N   0  0  0  0  0  0
    3.3010   -2.0131   -0.8305 H   0  0  0  0  0  0
    4.7796   -1.5858    0.0347 H   0  0  0  0  0  0
    3.3008   -1.9658    0.9213 H   0  0  0  0  0  0
    3.5858    0.4147    0.7873 H   0  0  0  0  0  0
    3.5859    0.3713   -0.8250 H   0  0  0  0  0  0
   -1.0767   -1.3139    0.0016 C   0  0  0  0  0  0
   -0.7069    0.0458    0.0064 O   0  0  0  0  0  0
   -2.1629   -1.3632    0.0059 H   0  0  0  0  0  0
   -0.7234   -1.8447   -0.8877 H   0  0  0  0  0  0
   -0.7161   -1.8528    0.8831 H   0  0  0  0  0  0
    0.2656    0.0717    0.0013 H   0  0  0  0  0  0
  1  2  1  0  0  0
  1  3  1  0  0  0
  1  4  1  0  0  0
  1  5  1  0  0  0
  2  6  1  0  0  0
  2  7  1  0  0  0
  8  9  1  0  0  0
  8 10  1  0  0  0
  8 11  1  0  0  0
  8 12  1  0  0  0
  9 13  1  0  0  0
M  END
$$$$
