


 18 17  0  0  1  0            999 V2000
   -0.0788    1.0424    0.7385 C   0  0  0  0  0  0
   -0.5411    0.0296   -0.2090 N   0  0  0  0  0  0
   -0.7201    1.9194    0.6720 H   0  0  0  0  0  0
   -0.0508    0.7238    1.7855 H   0  0  0  0  0  0
    0.9264    1.3566    0.4620 H   0  0  0  0  0  0
    0.0556   -0.7861   -0.1303 H   0  0  0  0  0  0
   -1.4697   -0.2747    0.0531 H   0  0  0  0  0  0
    3.6684    0.5442   -0.8800 C   0  0  0  0  0  0
    4.3292    0.7138    0.3322 C   0  0  0  0  0  0
    3.9891   -0.1212    1.3914 C   0  0  0  0  0  0
    3.0053   -1.0860    1.1922 C   0  0  0  0  0  0
    2.3586   -1.2603    0.0313 N   0  0  0  0  0  0
    2.6971   -0.4479   -0.9804 C   0  0  0  0  0  0
    3.8933    1.1686   -1.7329 H   0  0  0  0  0  0
    5.0871    1.4760    0.4486 H   0  0  0  0  0  0
    4.4717   -0.0307    2.3541 H   0  0  0  0  0  0
    2.7192   -1.7497    1.9988 H   0  0  0  0  0  0
    2.1544   -0.5925   -1.9058 H   0  0  0  0  0  0
  1  2  1  0  0  0
  1  3  1  0  0  0
  1  4  1  0  0  0
  1  5  1  0  0  0
  2  6  1  0  0  0
  2  7  1  0  0  0
  8  9  1  0  0  0
  9 10  2  0  0  0
 10 11  1  0  0  0
 11 12  2  0  0  0
 12 13  1  0  0  0
  8 13  2  0  0  0
  8 14  1  0  0  0
  9 15  1  0  0  0
 10 16  1  0  0  0
 11 17  1  0  0  0
 13 18  1  0  0  0
M  END
$$$$
