


 18 17  0  0  1  0            999 V2000
   -0.0788    1.0424    0.7385 C   0  0  0  0  0  0
   -0.5411    0.0296   -0.2090 N   0  0  0  0  0  0
   -0.7201    1.9194    0.6720 H   0  0  0  0  0  0
   -0.0508    0.7238    1.7855 H   0  0  0  0  0  0
    0.9264    1.3566    0.4620 H   0  0  0  0  0  0
    0.0556   -0.7861   -0.1303 H   0  0  0  0  0  0
   -1.4697   -0.2747    0.0531 H   0  0  0  0  0  0
    3.4382    0.5916   -0.8962 C   0  0  0  0  0  0
    4.0990    0.7612    0.3161 C   0  0  0  0  0  0
    3.7589   -0.0738    1.3752 C   0  0  0  0  0  0
    2.7751   -1.0386    1.1760 C   0  0  0  0  0  0
    2.1284   -1.2129    0.0152 N   0  0  0  0  0  0
    2.4669   -0.4005   -0.9965 C   0  0  0  0  0  0
    3.6630    1.2160   -1.7490 H   0  0  0  0  0  0
    4.8569    1.5234    0.4325 H   0  0  0  0  0  0
    4.2415    0.0167    2.3379 H   0  0  0  0  0  0
    2.4890   -1.7023    1.9826 H   0  0  0  0  0  0
    1.9242   -0.5451   -1.9219 H   0  0  0  0  0  0
  1  2  1  0  0  0
  1  3  1  0  0  0
  1  4  1  0  0  0
  1  5  1  0  0  0
  2  6  1  0  0  0
  2  7  1  0  0  0
  8  9  1  0  0  0
  9 10  2  0  0  0
 10 11  1  0  0  0
 11 12  2  0  0  0
 12 13  1  0  0  0
  8 13  2  0  0  0
  8 14  1  0  0  0
  9 15  1  0  0  0
 10 16  1  0  0  0
 11 17  1  0  0  0
 13 18  1  0  0  0
M  END
$$$$
