


 18 17  0  0  1  0            999 V2000
   -0.0788    1.0424    0.7385 C   0  0  0  0  0  0
   -0.5411    0.0296   -0.2090 N   0  0  0  0  0  0
   -0.7201    1.9194    0.6720 H   0  0  0  0  0  0
   -0.0508    0.7238    1.7855 H   0  0  0  0  0  0
    0.9264    1.3566    0.4620 H   0  0  0  0  0  0
    0.0556   -0.7861   -0.1303 H   0  0  0  0  0  0
   -1.4697   -0.2747    0.0531 H   0  0  0  0  0  0
    3.8988    0.4968   -0.8638 C   0  0  0  0  0  0
    4.5596    0.6663    0.3484 C   0  0  0  0  0  0
    4.2195   -0.1686    1.4075 C   0  0  0  0  0  0
    3.2357   -1.1334    1.2084 C   0  0  0  0  0  0
    2.5891   -1.3077    0.0475 N   0  0  0  0  0  0
    2.9275   -0.4954   -0.9642 C   0  0  0  0  0  0
    4.1237    1.1211   -1.7167 H   0  0  0  0  0  0
    5.3175    1.4286    0.4648 H   0  0  0  0  0  0
    4.7021   -0.0782    2.3702 H   0  0  0  0  0  0
    2.9497   -1.7972    2.0150 H   0  0  0  0  0  0
    2.3848   -0.6399   -1.8896 H   0  0  0  0  0  0
  1  2  1  0  0  0
  1  3  1  0  0  0
  1  4  1  0  0  0
  1  5  1  0  0  0
  2  6  1  0  0  0
  2  7  1  0  0  0
  8  9  1  0  0  0
  9 10  2  0  0  0
 10 11  1  0  0  0
 11 12  2  0  0  0
 12 13  1  0  0  0
  8 13  2  0  0  0
  8 14  1  0  0  0
  9 15  1  0  0  0
 10 16  1  0  0  0
 11 17  1  0  0  0
 13 18  1  0  0  0
M  END
$$$$
