


 18 17  0  0  1  0            999 V2000
   -0.0788    1.0424    0.7385 C   0  0  0  0  0  0
   -0.5411    0.0296   -0.2090 N   0  0  0  0  0  0
   -0.7201    1.9194    0.6720 H   0  0  0  0  0  0
   -0.0508    0.7238    1.7855 H   0  0  0  0  0  0
    0.9264    1.3566    0.4620 H   0  0  0  0  0  0
    0.0556   -0.7861   -0.1303 H   0  0  0  0  0  0
   -1.4697   -0.2747    0.0531 H   0  0  0  0  0  0
    3.7837    0.5205   -0.8719 C   0  0  0  0  0  0
    4.4445    0.6900    0.3403 C   0  0  0  0  0  0
    4.1044   -0.1449    1.3995 C   0  0  0  0  0  0
    3.1206   -1.1097    1.2003 C   0  0  0  0  0  0
    2.4739   -1.2840    0.0394 N   0  0  0  0  0  0
    2.8123   -0.4716   -0.9723 C   0  0  0  0  0  0
    4.0085    1.1448   -1.7248 H   0  0  0  0  0  0
    5.2024    1.4523    0.4567 H   0  0  0  0  0  0
    4.5869   -0.0545    2.3622 H   0  0  0  0  0  0
    2.8345   -1.7735    2.0069 H   0  0  0  0  0  0
    2.2697   -0.6162   -1.8977 H   0  0  0  0  0  0
  1  2  1  0  0  0
  1  3  1  0  0  0
  1  4  1  0  0  0
  1  5  1  0  0  0
  2  6  1  0  0  0
  2  7  1  0  0  0
  8  9  1  0  0  0
  9 10  2  0  0  0
 10 11  1  0  0  0
 11 12  2  0  0  0
 12 13  1  0  0  0
  8 13  2  0  0  0
  8 14  1  0  0  0
  9 15  1  0  0  0
 10 16  1  0  0  0
 11 17  1  0  0  0
 13 18  1  0  0  0
M  END
$$$$
