


 18 17  0  0  1  0            999 V2000
   -0.0788    1.0424    0.7385 C   0  0  0  0  0  0
   -0.5411    0.0296   -0.2090 N   0  0  0  0  0  0
   -0.7201    1.9194    0.6720 H   0  0  0  0  0  0
   -0.0508    0.7238    1.7855 H   0  0  0  0  0  0
    0.9264    1.3566    0.4620 H   0  0  0  0  0  0
    0.0556   -0.7861   -0.1303 H   0  0  0  0  0  0
   -1.4697   -0.2747    0.0531 H   0  0  0  0  0  0
    4.2443    0.4257   -0.8396 C   0  0  0  0  0  0
    4.9051    0.5952    0.3727 C   0  0  0  0  0  0
    4.5650   -0.2397    1.4318 C   0  0  0  0  0  0
    3.5812   -1.2045    1.2326 C   0  0  0  0  0  0
    2.9345   -1.3788    0.0717 N   0  0  0  0  0  0
    3.2729   -0.5665   -0.9400 C   0  0  0  0  0  0
    4.4691    1.0500   -1.6925 H   0  0  0  0  0  0
    5.6630    1.3574    0.4891 H   0  0  0  0  0  0
    5.0476   -0.1493    2.3945 H   0  0  0  0  0  0
    3.2951   -1.8683    2.0392 H   0  0  0  0  0  0
    2.7303   -0.7110   -1.8654 H   0  0  0  0  0  0
  1  2  1  0  0  0
  1  3  1  0  0  0
  1  4  1  0  0  0
  1  5  1  0  0  0
  2  6  1  0  0  0
  2  7  1  0  0  0
  8  9  1  0  0  0
  9 10  2  0  0  0
 10 11  1  0  0  0
 11 12  2  0  0  0
 12 13  1  0  0  0
  8 13  2  0  0  0
  8 14  1  0  0  0
  9 15  1  0  0  0
 10 16  1  0  0  0
 11 17  1  0  0  0
 13 18  1  0  0  0
M  END
$$$$
