


 18 17  0  0  1  0            999 V2000
   -0.0788    1.0424    0.7385 C   0  0  0  0  0  0
   -0.5411    0.0296   -0.2090 N   0  0  0  0  0  0
   -0.7201    1.9194    0.6720 H   0  0  0  0  0  0
   -0.0508    0.7238    1.7855 H   0  0  0  0  0  0
    0.9264    1.3566    0.4620 H   0  0  0  0  0  0
    0.0556   -0.7861   -0.1303 H   0  0  0  0  0  0
   -1.4697   -0.2747    0.0531 H   0  0  0  0  0  0
    5.9900    0.0663   -0.7171 C   0  0  0  0  0  0
    6.6508    0.2358    0.4952 C   0  0  0  0  0  0
    6.3107   -0.5992    1.5543 C   0  0  0  0  0  0
    5.3269   -1.5639    1.3551 C   0  0  0  0  0  0
    4.6802   -1.7382    0.1943 N   0  0  0  0  0  0
    5.0187   -0.9259   -0.8175 C   0  0  0  0  0  0
    6.2148    0.6906   -1.5699 H   0  0  0  0  0  0
    7.4087    0.9980    0.6116 H   0  0  0  0  0  0
    6.7933   -0.5087    2.5170 H   0  0  0  0  0  0
    5.0408   -2.2277    2.1617 H   0  0  0  0  0  0
    4.4760   -1.0704   -1.7428 H   0  0  0  0  0  0
  1  2  1  0  0  0
  1  3  1  0  0  0
  1  4  1  0  0  0
  1  5  1  0  0  0
  2  6  1  0  0  0
  2  7  1  0  0  0
  8  9  1  0  0  0
  9 10  2  0  0  0
 10 11  1  0  0  0
 11 12  2  0  0  0
 12 13  1  0  0  0
  8 13  2  0  0  0
  8 14  1  0  0  0
  9 15  1  0  0  0
 10 16  1  0  0  0
 11 17  1  0  0  0
 13 18  1  0  0  0
M  END
$$$$
