


 18 17  0  0  1  0            999 V2000
   -0.0788    1.0424    0.7385 C   0  0  0  0  0  0
   -0.5411    0.0296   -0.2090 N   0  0  0  0  0  0
   -0.7201    1.9194    0.6720 H   0  0  0  0  0  0
   -0.0508    0.7238    1.7855 H   0  0  0  0  0  0
    0.9264    1.3566    0.4620 H   0  0  0  0  0  0
    0.0556   -0.7861   -0.1303 H   0  0  0  0  0  0
   -1.4697   -0.2747    0.0531 H   0  0  0  0  0  0
    3.5533    0.5679   -0.8881 C   0  0  0  0  0  0
    4.2142    0.7375    0.3242 C   0  0  0  0  0  0
    3.8741   -0.0975    1.3833 C   0  0  0  0  0  0
    2.8903   -1.0623    1.1841 C   0  0  0  0  0  0
    2.2436   -1.2366    0.0233 N   0  0  0  0  0  0
    2.5820   -0.4242   -0.9885 C   0  0  0  0  0  0
    3.7782    1.1923   -1.7409 H   0  0  0  0  0  0
    4.9720    1.4997    0.4406 H   0  0  0  0  0  0
    4.3566   -0.0071    2.3460 H   0  0  0  0  0  0
    2.6042   -1.7261    1.9907 H   0  0  0  0  0  0
    2.0394   -0.5688   -1.9138 H   0  0  0  0  0  0
  1  2  1  0  0  0
  1  3  1  0  0  0
  1  4  1  0  0  0
  1  5  1  0  0  0
  2  6  1  0  0  0
  2  7  1  0  0  0
  8  9  1  0  0  0
  9 10  2  0  0  0
 10 11  1  0  0  0
 11 12  2  0  0  0
 12 13  1  0  0  0
  8 13  2  0  0  0
  8 14  1  0  0  0
  9 15  1  0  0  0
 10 16  1  0  0  0
 11 17  1  0  0  0
 13 18  1  0  0  0
M  END
$$$$
