


 18 17  0  0  1  0            999 V2000
   -0.0788    1.0424    0.7385 C   0  0  0  0  0  0
   -0.5411    0.0296   -0.2090 N   0  0  0  0  0  0
   -0.7201    1.9194    0.6720 H   0  0  0  0  0  0
   -0.0508    0.7238    1.7855 H   0  0  0  0  0  0
    0.9264    1.3566    0.4620 H   0  0  0  0  0  0
    0.0556   -0.7861   -0.1303 H   0  0  0  0  0  0
   -1.4697   -0.2747    0.0531 H   0  0  0  0  0  0
    4.8200    0.3071   -0.7992 C   0  0  0  0  0  0
    5.4809    0.4767    0.4131 C   0  0  0  0  0  0
    5.1408   -0.3583    1.4722 C   0  0  0  0  0  0
    4.1570   -1.3231    1.2730 C   0  0  0  0  0  0
    3.5103   -1.4973    0.1121 N   0  0  0  0  0  0
    3.8487   -0.6850   -0.8996 C   0  0  0  0  0  0
    5.0449    0.9315   -1.6521 H   0  0  0  0  0  0
    6.2387    1.2389    0.5294 H   0  0  0  0  0  0
    5.6233   -0.2678    2.4349 H   0  0  0  0  0  0
    3.8709   -1.9868    2.0796 H   0  0  0  0  0  0
    3.3061   -0.8295   -1.8249 H   0  0  0  0  0  0
  1  2  1  0  0  0
  1  3  1  0  0  0
  1  4  1  0  0  0
  1  5  1  0  0  0
  2  6  1  0  0  0
  2  7  1  0  0  0
  8  9  1  0  0  0
  9 10  2  0  0  0
 10 11  1  0  0  0
 11 12  2  0  0  0
 12 13  1  0  0  0
  8 13  2  0  0  0
  8 14  1  0  0  0
  9 15  1  0  0  0
 10 16  1  0  0  0
 11 17  1  0  0  0
 13 18  1  0  0  0
M  END
$$$$
