


 18 17  0  0  1  0            999 V2000
    0.7665    0.0766    4.9105 C   0  0  0  0  0  0
   -0.5622    0.1772    4.8612 C   0  0  0  0  0  0
    1.2837   -0.7944    4.5333 H   0  0  0  0  0  0
    1.3721    0.8636    5.3378 H   0  0  0  0  0  0
   -1.1743   -0.6103    4.4443 H   0  0  0  0  0  0
   -1.0741    1.0483    5.2452 H   0  0  0  0  0  0
   -2.3272   -1.0325   -0.0058 O   0  0  0  0  0  0
   -1.3088   -0.3619    0.0040 C   0  0  0  0  0  0
   -1.2368    1.0881   -0.0122 C   0  0  0  0  0  0
   -0.0352    1.6978    0.0337 C   0  0  0  0  0  0
    1.1345    0.9903    0.0918 N   0  0  0  0  0  0
    2.0237    1.4568    0.1557 H   0  0  0  0  0  0
    1.1932   -0.3918    0.1158 C   0  0  0  0  0  0
    2.2364   -1.0112    0.1942 O   0  0  0  0  0  0
   -0.0509   -0.9801    0.0340 N   0  0  0  0  0  0
   -0.0532   -1.9907    0.0498 H   0  0  0  0  0  0
   -2.1527    1.6515   -0.0548 H   0  0  0  0  0  0
    0.0704    2.7725    0.0319 H   0  0  0  0  0  0
  1  2  2  0  0  0
  1  3  1  0  0  0
  1  4  1  0  0  0
  2  5  1  0  0  0
  2  6  1  0  0  0
  7  8  2  0  0  0
  8  9  1  0  0  0
  9 10  2  0  0  0
 10 11  1  0  0  0
 11 12  1  0  0  0
 11 13  1  0  0  0
 13 14  2  0  0  0
 13 15  1  0  0  0
 15 16  1  0  0  0
  8 15  1  0  0  0
  9 17  1  0  0  0
 10 18  1  0  0  0
M  END
$$$$
