


 18 17  0  0  1  0            999 V2000
    0.7184    0.0154    3.1140 C   0  0  0  0  0  0
   -0.6104    0.1160    3.0648 C   0  0  0  0  0  0
    1.2355   -0.8556    2.7368 H   0  0  0  0  0  0
    1.3240    0.8024    3.5413 H   0  0  0  0  0  0
   -1.2224   -0.6715    2.6479 H   0  0  0  0  0  0
   -1.1222    0.9870    3.4488 H   0  0  0  0  0  0
   -2.3272   -1.0325   -0.0058 O   0  0  0  0  0  0
   -1.3088   -0.3619    0.0040 C   0  0  0  0  0  0
   -1.2368    1.0881   -0.0122 C   0  0  0  0  0  0
   -0.0352    1.6978    0.0337 C   0  0  0  0  0  0
    1.1345    0.9903    0.0918 N   0  0  0  0  0  0
    2.0237    1.4568    0.1557 H   0  0  0  0  0  0
    1.1932   -0.3918    0.1158 C   0  0  0  0  0  0
    2.2364   -1.0112    0.1942 O   0  0  0  0  0  0
   -0.0509   -0.9801    0.0340 N   0  0  0  0  0  0
   -0.0532   -1.9907    0.0498 H   0  0  0  0  0  0
   -2.1527    1.6515   -0.0548 H   0  0  0  0  0  0
    0.0704    2.7725    0.0319 H   0  0  0  0  0  0
  1  2  2  0  0  0
  1  3  1  0  0  0
  1  4  1  0  0  0
  2  5  1  0  0  0
  2  6  1  0  0  0
  7  8  2  0  0  0
  8  9  1  0  0  0
  9 10  2  0  0  0
 10 11  1  0  0  0
 11 12  1  0  0  0
 11 13  1  0  0  0
 13 14  2  0  0  0
 13 15  1  0  0  0
 15 16  1  0  0  0
  8 15  1  0  0  0
  9 17  1  0  0  0
 10 18  1  0  0  0
M  END
$$$$
