


 18 17  0  0  1  0            999 V2000
    0.7265    0.0256    3.4153 C   0  0  0  0  0  0
   -0.6023    0.1262    3.3661 C   0  0  0  0  0  0
    1.2436   -0.8454    3.0381 H   0  0  0  0  0  0
    1.3321    0.8126    3.8426 H   0  0  0  0  0  0
   -1.2143   -0.6612    2.9492 H   0  0  0  0  0  0
   -1.1141    0.9973    3.7501 H   0  0  0  0  0  0
   -2.3272   -1.0325   -0.0058 O   0  0  0  0  0  0
   -1.3088   -0.3619    0.0040 C   0  0  0  0  0  0
   -1.2368    1.0881   -0.0122 C   0  0  0  0  0  0
   -0.0352    1.6978    0.0337 C   0  0  0  0  0  0
    1.1345    0.9903    0.0918 N   0  0  0  0  0  0
    2.0237    1.4568    0.1557 H   0  0  0  0  0  0
    1.1932   -0.3918    0.1158 C   0  0  0  0  0  0
    2.2364   -1.0112    0.1942 O   0  0  0  0  0  0
   -0.0509   -0.9801    0.0340 N   0  0  0  0  0  0
   -0.0532   -1.9907    0.0498 H   0  0  0  0  0  0
   -2.1527    1.6515   -0.0548 H   0  0  0  0  0  0
    0.0704    2.7725    0.0319 H   0  0  0  0  0  0
  1  2  2  0  0  0
  1  3  1  0  0  0
  1  4  1  0  0  0
  2  5  1  0  0  0
  2  6  1  0  0  0
  7  8  2  0  0  0
  8  9  1  0  0  0
  9 10  2  0  0  0
 10 11  1  0  0  0
 11 12  1  0  0  0
 11 13  1  0  0  0
 13 14  2  0  0  0
 13 15  1  0  0  0
 15 16  1  0  0  0
  8 15  1  0  0  0
  9 17  1  0  0  0
 10 18  1  0  0  0
M  END
$$$$
