


 18 16  0  0  1  0            999 V2000
    7.4517   -0.0105    0.7308 C   0  0  0  0  0  0
    6.4693    1.0296    0.9535 N   0  0  0  0  0  0
    5.1432    0.7679    0.8943 C   0  0  0  0  0  0
    4.7190   -0.3520    0.6092 O   0  0  0  0  0  0
    4.2276    1.9228    1.2102 C   0  0  0  0  0  0
    7.0952   -0.6614   -0.0614 H   0  0  0  0  0  0
    8.3921    0.4430    0.4322 H   0  0  0  0  0  0
    7.6112   -0.6150    1.6228 H   0  0  0  0  0  0
    6.7673    1.9401    1.2512 H   0  0  0  0  0  0
    4.7339    2.8843    1.1753 H   0  0  0  0  0  0
    3.8170    1.7767    2.2081 H   0  0  0  0  0  0
    3.3979    1.9133    0.5087 H   0  0  0  0  0  0
   -1.0222   -0.7412   -0.0055 C   0  0  0  0  0  0
   -0.2088   -0.2169   -1.0324 O   0  0  0  0  0  0
   -2.0575   -0.5387   -0.2686 H   0  0  0  0  0  0
   -0.9077   -1.8218    0.1085 H   0  0  0  0  0  0
   -0.8246   -0.2755    0.9646 H   0  0  0  0  0  0
    0.7111   -0.3869   -0.7740 H   0  0  0  0  0  0
  1  2  1  0  0  0
  2  3  1  0  0  0
  3  4  2  0  0  0
  3  5  1  0  0  0
  1  6  1  0  0  0
  1  7  1  0  0  0
  1  8  1  0  0  0
  2  9  1  0  0  0
  5 10  1  0  0  0
  5 11  1  0  0  0
  5 12  1  0  0  0
 13 14  1  0  0  0
 13 15  1  0  0  0
 13 16  1  0  0  0
 13 17  1  0  0  0
 14 18  1  0  0  0
M  END
$$$$
