


 18 16  0  0  1  0            999 V2000
    5.3999   -0.0283    0.0226 C   0  0  0  0  0  0
    4.4175    1.0118    0.2454 N   0  0  0  0  0  0
    3.0914    0.7501    0.1862 C   0  0  0  0  0  0
    2.6672   -0.3699   -0.0989 O   0  0  0  0  0  0
    2.1757    1.9050    0.5021 C   0  0  0  0  0  0
    5.0434   -0.6793   -0.7695 H   0  0  0  0  0  0
    6.3403    0.4252   -0.2759 H   0  0  0  0  0  0
    5.5594   -0.6329    0.9147 H   0  0  0  0  0  0
    4.7155    1.9222    0.5431 H   0  0  0  0  0  0
    2.6821    2.8664    0.4672 H   0  0  0  0  0  0
    1.7652    1.7588    1.5000 H   0  0  0  0  0  0
    1.3461    1.8955   -0.1994 H   0  0  0  0  0  0
   -1.0222   -0.7412   -0.0055 C   0  0  0  0  0  0
   -0.2088   -0.2169   -1.0324 O   0  0  0  0  0  0
   -2.0575   -0.5387   -0.2686 H   0  0  0  0  0  0
   -0.9077   -1.8218    0.1085 H   0  0  0  0  0  0
   -0.8246   -0.2755    0.9646 H   0  0  0  0  0  0
    0.7111   -0.3869   -0.7740 H   0  0  0  0  0  0
  1  2  1  0  0  0
  2  3  1  0  0  0
  3  4  2  0  0  0
  3  5  1  0  0  0
  1  6  1  0  0  0
  1  7  1  0  0  0
  1  8  1  0  0  0
  2  9  1  0  0  0
  5 10  1  0  0  0
  5 11  1  0  0  0
  5 12  1  0  0  0
 13 14  1  0  0  0
 13 15  1  0  0  0
 13 16  1  0  0  0
 13 17  1  0  0  0
 14 18  1  0  0  0
M  END
$$$$
