


 18 16  0  0  1  0            999 V2000
   -1.3853   -0.0023   -1.2341 C   0  0  0  0  0  0
   -0.8016   -0.0273    0.0883 N   0  0  0  0  0  0
   -1.5640   -0.3533    1.1595 C   0  0  0  0  0  0
   -2.7495   -0.6515    1.0568 O   0  0  0  0  0  0
   -0.8493   -0.3395    2.4917 C   0  0  0  0  0  0
   -1.8916   -0.9428   -1.4401 H   0  0  0  0  0  0
   -2.1200    0.7962   -1.3309 H   0  0  0  0  0  0
   -0.5946    0.1496   -1.9631 H   0  0  0  0  0  0
    0.1612    0.2404    0.2187 H   0  0  0  0  0  0
    0.1843   -0.0110    2.4162 H   0  0  0  0  0  0
   -0.8825   -1.3420    2.9127 H   0  0  0  0  0  0
   -1.3908    0.3169    3.1684 H   0  0  0  0  0  0
    3.6814   -1.0473    0.8095 C   0  0  0  0  0  0
    3.1623    0.2581    0.5757 O   0  0  0  0  0  0
    2.8488   -1.7361    0.7040 H   0  0  0  0  0  0
    4.4475   -1.3163    0.0827 H   0  0  0  0  0  0
    4.0895   -1.1487    1.8152 H   0  0  0  0  0  0
    3.8831    0.8854    0.6661 H   0  0  0  0  0  0
  1  2  1  0  0  0
  2  3  1  0  0  0
  3  4  2  0  0  0
  3  5  1  0  0  0
  1  6  1  0  0  0
  1  7  1  0  0  0
  1  8  1  0  0  0
  2  9  1  0  0  0
  5 10  1  0  0  0
  5 11  1  0  0  0
  5 12  1  0  0  0
 13 14  1  0  0  0
 13 15  1  0  0  0
 13 16  1  0  0  0
 13 17  1  0  0  0
 14 18  1  0  0  0
M  END
$$$$
