


 18 16  0  0  1  0            999 V2000
    5.3110   -0.0291   -0.0080 C   0  0  0  0  0  0
    4.3286    1.0110    0.2147 N   0  0  0  0  0  0
    3.0025    0.7493    0.1555 C   0  0  0  0  0  0
    2.5783   -0.3706   -0.1296 O   0  0  0  0  0  0
    2.0868    1.9042    0.4714 C   0  0  0  0  0  0
    4.9545   -0.6801   -0.8002 H   0  0  0  0  0  0
    6.2514    0.4244   -0.3066 H   0  0  0  0  0  0
    5.4705   -0.6336    0.8840 H   0  0  0  0  0  0
    4.6266    1.9214    0.5124 H   0  0  0  0  0  0
    2.5932    2.8657    0.4365 H   0  0  0  0  0  0
    1.6763    1.7581    1.4693 H   0  0  0  0  0  0
    1.2572    1.8947   -0.2301 H   0  0  0  0  0  0
   -1.0222   -0.7412   -0.0055 C   0  0  0  0  0  0
   -0.2088   -0.2169   -1.0324 O   0  0  0  0  0  0
   -2.0575   -0.5387   -0.2686 H   0  0  0  0  0  0
   -0.9077   -1.8218    0.1085 H   0  0  0  0  0  0
   -0.8246   -0.2755    0.9646 H   0  0  0  0  0  0
    0.7111   -0.3869   -0.7740 H   0  0  0  0  0  0
  1  2  1  0  0  0
  2  3  1  0  0  0
  3  4  2  0  0  0
  3  5  1  0  0  0
  1  6  1  0  0  0
  1  7  1  0  0  0
  1  8  1  0  0  0
  2  9  1  0  0  0
  5 10  1  0  0  0
  5 11  1  0  0  0
  5 12  1  0  0  0
 13 14  1  0  0  0
 13 15  1  0  0  0
 13 16  1  0  0  0
 13 17  1  0  0  0
 14 18  1  0  0  0
M  END
$$$$
