


 18 16  0  0  1  0            999 V2000
    5.0443   -0.0314   -0.1001 C   0  0  0  0  0  0
    4.0619    1.0087    0.1226 N   0  0  0  0  0  0
    2.7357    0.7469    0.0635 C   0  0  0  0  0  0
    2.3115   -0.3730   -0.2216 O   0  0  0  0  0  0
    1.8201    1.9019    0.3794 C   0  0  0  0  0  0
    4.6877   -0.6824   -0.8923 H   0  0  0  0  0  0
    5.9847    0.4221   -0.3986 H   0  0  0  0  0  0
    5.2038   -0.6360    0.7920 H   0  0  0  0  0  0
    4.3599    1.9191    0.4203 H   0  0  0  0  0  0
    2.3265    2.8633    0.3445 H   0  0  0  0  0  0
    1.4096    1.7557    1.3772 H   0  0  0  0  0  0
    0.9905    1.8924   -0.3221 H   0  0  0  0  0  0
   -1.0222   -0.7412   -0.0055 C   0  0  0  0  0  0
   -0.2088   -0.2169   -1.0324 O   0  0  0  0  0  0
   -2.0575   -0.5387   -0.2686 H   0  0  0  0  0  0
   -0.9077   -1.8218    0.1085 H   0  0  0  0  0  0
   -0.8246   -0.2755    0.9646 H   0  0  0  0  0  0
    0.7111   -0.3869   -0.7740 H   0  0  0  0  0  0
  1  2  1  0  0  0
  2  3  1  0  0  0
  3  4  2  0  0  0
  3  5  1  0  0  0
  1  6  1  0  0  0
  1  7  1  0  0  0
  1  8  1  0  0  0
  2  9  1  0  0  0
  5 10  1  0  0  0
  5 11  1  0  0  0
  5 12  1  0  0  0
 13 14  1  0  0  0
 13 15  1  0  0  0
 13 16  1  0  0  0
 13 17  1  0  0  0
 14 18  1  0  0  0
M  END
$$$$
