


 18 16  0  0  1  0            999 V2000
    5.6666   -0.0260    0.1147 C   0  0  0  0  0  0
    4.6842    1.0141    0.3374 N   0  0  0  0  0  0
    3.3581    0.7524    0.2782 C   0  0  0  0  0  0
    2.9339   -0.3675   -0.0069 O   0  0  0  0  0  0
    2.4425    1.9073    0.5942 C   0  0  0  0  0  0
    5.3101   -0.6770   -0.6775 H   0  0  0  0  0  0
    6.6070    0.4275   -0.1838 H   0  0  0  0  0  0
    5.8261   -0.6306    1.0068 H   0  0  0  0  0  0
    4.9822    1.9245    0.6351 H   0  0  0  0  0  0
    2.9488    2.8688    0.5593 H   0  0  0  0  0  0
    2.0319    1.7612    1.5920 H   0  0  0  0  0  0
    1.6128    1.8978   -0.1073 H   0  0  0  0  0  0
   -1.0222   -0.7412   -0.0055 C   0  0  0  0  0  0
   -0.2088   -0.2169   -1.0324 O   0  0  0  0  0  0
   -2.0575   -0.5387   -0.2686 H   0  0  0  0  0  0
   -0.9077   -1.8218    0.1085 H   0  0  0  0  0  0
   -0.8246   -0.2755    0.9646 H   0  0  0  0  0  0
    0.7111   -0.3869   -0.7740 H   0  0  0  0  0  0
  1  2  1  0  0  0
  2  3  1  0  0  0
  3  4  2  0  0  0
  3  5  1  0  0  0
  1  6  1  0  0  0
  1  7  1  0  0  0
  1  8  1  0  0  0
  2  9  1  0  0  0
  5 10  1  0  0  0
  5 11  1  0  0  0
  5 12  1  0  0  0
 13 14  1  0  0  0
 13 15  1  0  0  0
 13 16  1  0  0  0
 13 17  1  0  0  0
 14 18  1  0  0  0
M  END
$$$$
