


 18 16  0  0  1  0            999 V2000
    6.1822   -0.0215    0.2926 C   0  0  0  0  0  0
    5.1998    1.0186    0.5154 N   0  0  0  0  0  0
    3.8737    0.7569    0.4562 C   0  0  0  0  0  0
    3.4495   -0.3631    0.1711 O   0  0  0  0  0  0
    2.9580    1.9118    0.7721 C   0  0  0  0  0  0
    5.8257   -0.6725   -0.4996 H   0  0  0  0  0  0
    7.1226    0.4320   -0.0059 H   0  0  0  0  0  0
    6.3417   -0.6261    1.1847 H   0  0  0  0  0  0
    5.4978    1.9290    0.8131 H   0  0  0  0  0  0
    3.4644    2.8732    0.7372 H   0  0  0  0  0  0
    2.5475    1.7657    1.7700 H   0  0  0  0  0  0
    2.1284    1.9023    0.0706 H   0  0  0  0  0  0
   -1.0222   -0.7412   -0.0055 C   0  0  0  0  0  0
   -0.2088   -0.2169   -1.0324 O   0  0  0  0  0  0
   -2.0575   -0.5387   -0.2686 H   0  0  0  0  0  0
   -0.9077   -1.8218    0.1085 H   0  0  0  0  0  0
   -0.8246   -0.2755    0.9646 H   0  0  0  0  0  0
    0.7111   -0.3869   -0.7740 H   0  0  0  0  0  0
  1  2  1  0  0  0
  2  3  1  0  0  0
  3  4  2  0  0  0
  3  5  1  0  0  0
  1  6  1  0  0  0
  1  7  1  0  0  0
  1  8  1  0  0  0
  2  9  1  0  0  0
  5 10  1  0  0  0
  5 11  1  0  0  0
  5 12  1  0  0  0
 13 14  1  0  0  0
 13 15  1  0  0  0
 13 16  1  0  0  0
 13 17  1  0  0  0
 14 18  1  0  0  0
M  END
$$$$
