


 18 16  0  0  1  0            999 V2000
    5.1332   -0.0307   -0.0694 C   0  0  0  0  0  0
    4.1508    1.0094    0.1533 N   0  0  0  0  0  0
    2.8247    0.7477    0.0941 C   0  0  0  0  0  0
    2.4004   -0.3722   -0.1910 O   0  0  0  0  0  0
    1.9090    1.9027    0.4101 C   0  0  0  0  0  0
    4.7766   -0.6816   -0.8616 H   0  0  0  0  0  0
    6.0736    0.4229   -0.3679 H   0  0  0  0  0  0
    5.2927   -0.6352    0.8227 H   0  0  0  0  0  0
    4.4488    1.9199    0.4510 H   0  0  0  0  0  0
    2.4154    2.8641    0.3752 H   0  0  0  0  0  0
    1.4985    1.7565    1.4079 H   0  0  0  0  0  0
    1.0794    1.8931   -0.2914 H   0  0  0  0  0  0
   -1.0222   -0.7412   -0.0055 C   0  0  0  0  0  0
   -0.2088   -0.2169   -1.0324 O   0  0  0  0  0  0
   -2.0575   -0.5387   -0.2686 H   0  0  0  0  0  0
   -0.9077   -1.8218    0.1085 H   0  0  0  0  0  0
   -0.8246   -0.2755    0.9646 H   0  0  0  0  0  0
    0.7111   -0.3869   -0.7740 H   0  0  0  0  0  0
  1  2  1  0  0  0
  2  3  1  0  0  0
  3  4  2  0  0  0
  3  5  1  0  0  0
  1  6  1  0  0  0
  1  7  1  0  0  0
  1  8  1  0  0  0
  2  9  1  0  0  0
  5 10  1  0  0  0
  5 11  1  0  0  0
  5 12  1  0  0  0
 13 14  1  0  0  0
 13 15  1  0  0  0
 13 16  1  0  0  0
 13 17  1  0  0  0
 14 18  1  0  0  0
M  END
$$$$
