


 18 16  0  0  1  0            999 V2000
    5.2220   -0.0299   -0.0388 C   0  0  0  0  0  0
    4.2396    1.0102    0.1840 N   0  0  0  0  0  0
    2.9135    0.7485    0.1248 C   0  0  0  0  0  0
    2.4893   -0.3714   -0.1603 O   0  0  0  0  0  0
    1.9978    1.9034    0.4407 C   0  0  0  0  0  0
    4.8654   -0.6808   -0.8309 H   0  0  0  0  0  0
    6.1624    0.4236   -0.3373 H   0  0  0  0  0  0
    5.3815   -0.6344    0.8533 H   0  0  0  0  0  0
    4.5376    1.9207    0.4817 H   0  0  0  0  0  0
    2.5042    2.8649    0.4058 H   0  0  0  0  0  0
    1.5873    1.7573    1.4386 H   0  0  0  0  0  0
    1.1682    1.8939   -0.2608 H   0  0  0  0  0  0
   -1.0222   -0.7412   -0.0055 C   0  0  0  0  0  0
   -0.2088   -0.2169   -1.0324 O   0  0  0  0  0  0
   -2.0575   -0.5387   -0.2686 H   0  0  0  0  0  0
   -0.9077   -1.8218    0.1085 H   0  0  0  0  0  0
   -0.8246   -0.2755    0.9646 H   0  0  0  0  0  0
    0.7111   -0.3869   -0.7740 H   0  0  0  0  0  0
  1  2  1  0  0  0
  2  3  1  0  0  0
  3  4  2  0  0  0
  3  5  1  0  0  0
  1  6  1  0  0  0
  1  7  1  0  0  0
  1  8  1  0  0  0
  2  9  1  0  0  0
  5 10  1  0  0  0
  5 11  1  0  0  0
  5 12  1  0  0  0
 13 14  1  0  0  0
 13 15  1  0  0  0
 13 16  1  0  0  0
 13 17  1  0  0  0
 14 18  1  0  0  0
M  END
$$$$
