


 18 16  0  0  1  0            999 V2000
   -1.3853   -0.0023   -1.2341 C   0  0  0  0  0  0
   -0.8016   -0.0273    0.0883 N   0  0  0  0  0  0
   -1.5640   -0.3533    1.1595 C   0  0  0  0  0  0
   -2.7495   -0.6515    1.0568 O   0  0  0  0  0  0
   -0.8493   -0.3395    2.4917 C   0  0  0  0  0  0
   -1.8916   -0.9428   -1.4401 H   0  0  0  0  0  0
   -2.1200    0.7962   -1.3309 H   0  0  0  0  0  0
   -0.5946    0.1496   -1.9631 H   0  0  0  0  0  0
    0.1612    0.2404    0.2187 H   0  0  0  0  0  0
    0.1843   -0.0110    2.4162 H   0  0  0  0  0  0
   -0.8825   -1.3420    2.9127 H   0  0  0  0  0  0
   -1.3908    0.3169    3.1684 H   0  0  0  0  0  0
    2.8811   -1.0520    0.7144 C   0  0  0  0  0  0
    2.3620    0.2533    0.4805 O   0  0  0  0  0  0
    2.0485   -1.7408    0.6088 H   0  0  0  0  0  0
    3.6472   -1.3210   -0.0125 H   0  0  0  0  0  0
    3.2892   -1.1535    1.7200 H   0  0  0  0  0  0
    3.0829    0.8806    0.5709 H   0  0  0  0  0  0
  1  2  1  0  0  0
  2  3  1  0  0  0
  3  4  2  0  0  0
  3  5  1  0  0  0
  1  6  1  0  0  0
  1  7  1  0  0  0
  1  8  1  0  0  0
  2  9  1  0  0  0
  5 10  1  0  0  0
  5 11  1  0  0  0
  5 12  1  0  0  0
 13 14  1  0  0  0
 13 15  1  0  0  0
 13 16  1  0  0  0
 13 17  1  0  0  0
 14 18  1  0  0  0
M  END
$$$$
