


 23 23  0  0  1  0            999 V2000
    0.8451    1.0579    0.6995 C   0  0  0  0  0  0
    1.3755   -0.2175    0.5112 C   0  0  0  0  0  0
    0.5241   -1.3070    0.3332 C   0  0  0  0  0  0
   -0.8577   -1.1215    0.3464 C   0  0  0  0  0  0
   -1.3880    0.1536    0.5376 C   0  0  0  0  0  0
   -0.5366    1.2434    0.7127 C   0  0  0  0  0  0
    1.5064    1.9032    0.8334 H   0  0  0  0  0  0
    2.4472   -0.3615    0.5028 H   0  0  0  0  0  0
    0.9357   -2.2960    0.1849 H   0  0  0  0  0  0
   -1.5184   -1.9665    0.2084 H   0  0  0  0  0  0
   -2.4597    0.2974    0.5500 H   0  0  0  0  0  0
   -0.9489    2.2328    0.8574 H   0  0  0  0  0  0
    0.1620    0.9977    4.5863 C   0  0  0  0  0  0
   -0.0223   -0.3140    4.1610 C   0  0  0  0  0  0
   -0.1841   -1.2990    5.1299 C   0  0  0  0  0  0
   -0.1549   -0.9317    6.4730 C   0  0  0  0  0  0
    0.0216    0.3270    6.8977 N   0  0  0  0  0  0
    0.1762    1.2650    5.9528 C   0  0  0  0  0  0
    0.2923    1.7987    3.8724 H   0  0  0  0  0  0
   -0.0389   -0.5571    3.1077 H   0  0  0  0  0  0
   -0.3307   -2.3342    4.8551 H   0  0  0  0  0  0
   -0.2785   -1.6792    7.2471 H   0  0  0  0  0  0
    0.3180    2.2775    6.3107 H   0  0  0  0  0  0
  1  2  1  0  0  0
  2  3  2  0  0  0
  3  4  1  0  0  0
  4  5  2  0  0  0
  5  6  1  0  0  0
  1  6  2  0  0  0
  1  7  1  0  0  0
  2  8  1  0  0  0
  3  9  1  0  0  0
  4 10  1  0  0  0
  5 11  1  0  0  0
  6 12  1  0  0  0
 13 14  1  0  0  0
 14 15  2  0  0  0
 15 16  1  0  0  0
 16 17  2  0  0  0
 17 18  1  0  0  0
 13 18  2  0  0  0
 13 19  1  0  0  0
 14 20  1  0  0  0
 15 21  1  0  0  0
 16 22  1  0  0  0
 18 23  1  0  0  0
M  END
$$$$
