


 23 23  0  0  1  0            999 V2000
    0.8451    1.0579    0.6995 C   0  0  0  0  0  0
    1.3755   -0.2175    0.5112 C   0  0  0  0  0  0
    0.5241   -1.3070    0.3332 C   0  0  0  0  0  0
   -0.8577   -1.1215    0.3464 C   0  0  0  0  0  0
   -1.3880    0.1536    0.5376 C   0  0  0  0  0  0
   -0.5366    1.2434    0.7127 C   0  0  0  0  0  0
    1.5064    1.9032    0.8334 H   0  0  0  0  0  0
    2.4472   -0.3615    0.5028 H   0  0  0  0  0  0
    0.9357   -2.2960    0.1849 H   0  0  0  0  0  0
   -1.5184   -1.9665    0.2084 H   0  0  0  0  0  0
   -2.4597    0.2974    0.5500 H   0  0  0  0  0  0
   -0.9489    2.2328    0.8574 H   0  0  0  0  0  0
    0.1640    1.0295    4.4297 C   0  0  0  0  0  0
   -0.0203   -0.2821    4.0044 C   0  0  0  0  0  0
   -0.1822   -1.2672    4.9733 C   0  0  0  0  0  0
   -0.1530   -0.8998    6.3164 C   0  0  0  0  0  0
    0.0235    0.3588    6.7411 N   0  0  0  0  0  0
    0.1782    1.2968    5.7962 C   0  0  0  0  0  0
    0.2943    1.8305    3.7158 H   0  0  0  0  0  0
   -0.0369   -0.5253    2.9511 H   0  0  0  0  0  0
   -0.3287   -2.3024    4.6985 H   0  0  0  0  0  0
   -0.2766   -1.6473    7.0905 H   0  0  0  0  0  0
    0.3200    2.3093    6.1541 H   0  0  0  0  0  0
  1  2  1  0  0  0
  2  3  2  0  0  0
  3  4  1  0  0  0
  4  5  2  0  0  0
  5  6  1  0  0  0
  1  6  2  0  0  0
  1  7  1  0  0  0
  2  8  1  0  0  0
  3  9  1  0  0  0
  4 10  1  0  0  0
  5 11  1  0  0  0
  6 12  1  0  0  0
 13 14  1  0  0  0
 14 15  2  0  0  0
 15 16  1  0  0  0
 16 17  2  0  0  0
 17 18  1  0  0  0
 13 18  2  0  0  0
 13 19  1  0  0  0
 14 20  1  0  0  0
 15 21  1  0  0  0
 16 22  1  0  0  0
 18 23  1  0  0  0
M  END
$$$$
