


 23 23  0  0  1  0            999 V2000
    0.8188    0.8642    0.1883 C   0  0  0  0  0  0
    1.3690   -0.3905   -0.0667 C   0  0  0  0  0  0
    0.5344   -1.4885   -0.2719 C   0  0  0  0  0  0
   -0.8491   -1.3305   -0.2199 C   0  0  0  0  0  0
   -1.3995   -0.0760    0.0404 C   0  0  0  0  0  0
   -0.5653    1.0214    0.2423 C   0  0  0  0  0  0
    1.4661    1.7167    0.3447 H   0  0  0  0  0  0
    2.4430   -0.5119   -0.1106 H   0  0  0  0  0  0
    0.9609   -2.4616   -0.4755 H   0  0  0  0  0  0
   -1.4971   -2.1819   -0.3796 H   0  0  0  0  0  0
   -2.4727    0.0449    0.0934 H   0  0  0  0  0  0
   -0.9926    1.9937    0.4463 H   0  0  0  0  0  0
   -0.3758    1.4481    3.7976 C   0  0  0  0  0  0
    0.4252    0.3312    3.5834 C   0  0  0  0  0  0
   -0.1954   -0.8775    3.2897 C   0  0  0  0  0  0
   -1.5859   -0.9155    3.2243 C   0  0  0  0  0  0
   -2.3728    0.1496    3.4274 N   0  0  0  0  0  0
   -1.7580    1.3073    3.7074 C   0  0  0  0  0  0
    0.0561    2.4118    4.0288 H   0  0  0  0  0  0
    1.5028    0.4015    3.6382 H   0  0  0  0  0  0
    0.3804   -1.7731    3.1056 H   0  0  0  0  0  0
   -2.0947   -1.8440    2.9954 H   0  0  0  0  0  0
   -2.4056    2.1605    3.8699 H   0  0  0  0  0  0
  1  2  1  0  0  0
  2  3  2  0  0  0
  3  4  1  0  0  0
  4  5  2  0  0  0
  5  6  1  0  0  0
  1  6  2  0  0  0
  1  7  1  0  0  0
  2  8  1  0  0  0
  3  9  1  0  0  0
  4 10  1  0  0  0
  5 11  1  0  0  0
  6 12  1  0  0  0
 13 14  1  0  0  0
 14 15  2  0  0  0
 15 16  1  0  0  0
 16 17  2  0  0  0
 17 18  1  0  0  0
 13 18  2  0  0  0
 13 19  1  0  0  0
 14 20  1  0  0  0
 15 21  1  0  0  0
 16 22  1  0  0  0
 18 23  1  0  0  0
M  END
$$$$
