


 23 23  0  0  1  0            999 V2000
    0.8451    1.0579    0.6995 C   0  0  0  0  0  0
    1.3755   -0.2175    0.5112 C   0  0  0  0  0  0
    0.5241   -1.3070    0.3332 C   0  0  0  0  0  0
   -0.8577   -1.1215    0.3464 C   0  0  0  0  0  0
   -1.3880    0.1536    0.5376 C   0  0  0  0  0  0
   -0.5366    1.2434    0.7127 C   0  0  0  0  0  0
    1.5064    1.9032    0.8334 H   0  0  0  0  0  0
    2.4472   -0.3615    0.5028 H   0  0  0  0  0  0
    0.9357   -2.2960    0.1849 H   0  0  0  0  0  0
   -1.5184   -1.9665    0.2084 H   0  0  0  0  0  0
   -2.4597    0.2974    0.5500 H   0  0  0  0  0  0
   -0.9489    2.2328    0.8574 H   0  0  0  0  0  0
    0.1451    0.7250    5.9276 C   0  0  0  0  0  0
   -0.0392   -0.5866    5.5024 C   0  0  0  0  0  0
   -0.2011   -1.5716    6.4712 C   0  0  0  0  0  0
   -0.1718   -1.2043    7.8143 C   0  0  0  0  0  0
    0.0047    0.0544    8.2390 N   0  0  0  0  0  0
    0.1593    0.9923    7.2941 C   0  0  0  0  0  0
    0.2754    1.5261    5.2138 H   0  0  0  0  0  0
   -0.0558   -0.8297    4.4490 H   0  0  0  0  0  0
   -0.3476   -2.6068    6.1964 H   0  0  0  0  0  0
   -0.2955   -1.9518    8.5884 H   0  0  0  0  0  0
    0.3011    2.0049    7.6521 H   0  0  0  0  0  0
  1  2  1  0  0  0
  2  3  2  0  0  0
  3  4  1  0  0  0
  4  5  2  0  0  0
  5  6  1  0  0  0
  1  6  2  0  0  0
  1  7  1  0  0  0
  2  8  1  0  0  0
  3  9  1  0  0  0
  4 10  1  0  0  0
  5 11  1  0  0  0
  6 12  1  0  0  0
 13 14  1  0  0  0
 14 15  2  0  0  0
 15 16  1  0  0  0
 16 17  2  0  0  0
 17 18  1  0  0  0
 13 18  2  0  0  0
 13 19  1  0  0  0
 14 20  1  0  0  0
 15 21  1  0  0  0
 16 22  1  0  0  0
 18 23  1  0  0  0
M  END
$$$$
