


 23 23  0  0  1  0            999 V2000
    0.8188    0.8642    0.1883 C   0  0  0  0  0  0
    1.3690   -0.3905   -0.0667 C   0  0  0  0  0  0
    0.5344   -1.4885   -0.2719 C   0  0  0  0  0  0
   -0.8491   -1.3305   -0.2199 C   0  0  0  0  0  0
   -1.3995   -0.0760    0.0404 C   0  0  0  0  0  0
   -0.5653    1.0214    0.2423 C   0  0  0  0  0  0
    1.4661    1.7167    0.3447 H   0  0  0  0  0  0
    2.4430   -0.5119   -0.1106 H   0  0  0  0  0  0
    0.9609   -2.4616   -0.4755 H   0  0  0  0  0  0
   -1.4971   -2.1819   -0.3796 H   0  0  0  0  0  0
   -2.4727    0.0449    0.0934 H   0  0  0  0  0  0
   -0.9926    1.9937    0.4463 H   0  0  0  0  0  0
   -1.3416    1.9209    7.3108 C   0  0  0  0  0  0
   -0.5406    0.8039    7.0966 C   0  0  0  0  0  0
   -1.1612   -0.4047    6.8029 C   0  0  0  0  0  0
   -2.5517   -0.4428    6.7375 C   0  0  0  0  0  0
   -3.3387    0.6224    6.9406 N   0  0  0  0  0  0
   -2.7238    1.7800    7.2207 C   0  0  0  0  0  0
   -0.9097    2.8845    7.5420 H   0  0  0  0  0  0
    0.5369    0.8743    7.1514 H   0  0  0  0  0  0
   -0.5854   -1.3004    6.6189 H   0  0  0  0  0  0
   -3.0605   -1.3712    6.5086 H   0  0  0  0  0  0
   -3.3714    2.6332    7.3832 H   0  0  0  0  0  0
  1  2  1  0  0  0
  2  3  2  0  0  0
  3  4  1  0  0  0
  4  5  2  0  0  0
  5  6  1  0  0  0
  1  6  2  0  0  0
  1  7  1  0  0  0
  2  8  1  0  0  0
  3  9  1  0  0  0
  4 10  1  0  0  0
  5 11  1  0  0  0
  6 12  1  0  0  0
 13 14  1  0  0  0
 14 15  2  0  0  0
 15 16  1  0  0  0
 16 17  2  0  0  0
 17 18  1  0  0  0
 13 18  2  0  0  0
 13 19  1  0  0  0
 14 20  1  0  0  0
 15 21  1  0  0  0
 16 22  1  0  0  0
 18 23  1  0  0  0
M  END
$$$$
