


 21 19  0  0  1  0            999 V2000
   -0.6062    0.0559    0.5890 C   0  0  0  0  0  0
    0.6058    0.0555    0.5893 C   0  0  0  0  0  0
   -1.6680    0.0558    0.5890 H   0  0  0  0  0  0
    1.6677    0.0549    0.5897 H   0  0  0  0  0  0
   -2.5304   -0.3413    3.8896 C   0  0  0  0  0  0
   -1.2699    0.5133    3.9007 C   0  0  0  0  0  0
    0.0000   -0.3250    3.9411 C   0  0  0  0  0  0
    1.2699    0.5134    3.9007 C   0  0  0  0  0  0
    2.5305   -0.3413    3.8898 C   0  0  0  0  0  0
   -2.5388   -1.0032    3.0232 H   0  0  0  0  0  0
   -2.5823   -0.9675    4.7802 H   0  0  0  0  0  0
   -3.4328    0.2676    3.8568 H   0  0  0  0  0  0
   -1.2865    1.1863    4.7611 H   0  0  0  0  0  0
   -1.2446    1.1475    3.0119 H   0  0  0  0  0  0
    0.0000   -0.9428    4.8442 H   0  0  0  0  0  0
    0.0001   -1.0133    3.0919 H   0  0  0  0  0  0
    1.2866    1.1863    4.7612 H   0  0  0  0  0  0
    1.2448    1.1475    3.0120 H   0  0  0  0  0  0
    2.5388   -1.0033    3.0234 H   0  0  0  0  0  0
    3.4328    0.2677    3.8571 H   0  0  0  0  0  0
    2.5823   -0.9675    4.7804 H   0  0  0  0  0  0
  1  2  3  0  0  0
  1  3  1  0  0  0
  2  4  1  0  0  0
  5  6  1  0  0  0
  6  7  1  0  0  0
  7  8  1  0  0  0
  8  9  1  0  0  0
  5 10  1  0  0  0
  5 11  1  0  0  0
  5 12  1  0  0  0
  6 13  1  0  0  0
  6 14  1  0  0  0
  7 15  1  0  0  0
  7 16  1  0  0  0
  8 17  1  0  0  0
  8 18  1  0  0  0
  9 19  1  0  0  0
  9 20  1  0  0  0
  9 21  1  0  0  0
M  END
$$$$
