


 21 19  0  0  1  0            999 V2000
   -0.6062    0.0559    0.5890 C   0  0  0  0  0  0
    0.6058    0.0555    0.5893 C   0  0  0  0  0  0
   -1.6680    0.0558    0.5890 H   0  0  0  0  0  0
    1.6677    0.0549    0.5897 H   0  0  0  0  0  0
   -2.5304   -0.3475    4.2203 C   0  0  0  0  0  0
   -1.2699    0.5071    4.2313 C   0  0  0  0  0  0
    0.0000   -0.3312    4.2718 C   0  0  0  0  0  0
    1.2700    0.5072    4.2314 C   0  0  0  0  0  0
    2.5305   -0.3475    4.2205 C   0  0  0  0  0  0
   -2.5388   -1.0094    3.3538 H   0  0  0  0  0  0
   -2.5823   -0.9738    5.1108 H   0  0  0  0  0  0
   -3.4328    0.2614    4.1875 H   0  0  0  0  0  0
   -1.2865    1.1801    5.0917 H   0  0  0  0  0  0
   -1.2446    1.1413    3.3425 H   0  0  0  0  0  0
    0.0000   -0.9490    5.1748 H   0  0  0  0  0  0
    0.0001   -1.0195    3.4225 H   0  0  0  0  0  0
    1.2866    1.1801    5.0918 H   0  0  0  0  0  0
    1.2448    1.1413    3.3426 H   0  0  0  0  0  0
    2.5389   -1.0095    3.3541 H   0  0  0  0  0  0
    3.4328    0.2614    4.1877 H   0  0  0  0  0  0
    2.5823   -0.9737    5.1111 H   0  0  0  0  0  0
  1  2  3  0  0  0
  1  3  1  0  0  0
  2  4  1  0  0  0
  5  6  1  0  0  0
  6  7  1  0  0  0
  7  8  1  0  0  0
  8  9  1  0  0  0
  5 10  1  0  0  0
  5 11  1  0  0  0
  5 12  1  0  0  0
  6 13  1  0  0  0
  6 14  1  0  0  0
  7 15  1  0  0  0
  7 16  1  0  0  0
  8 17  1  0  0  0
  8 18  1  0  0  0
  9 19  1  0  0  0
  9 20  1  0  0  0
  9 21  1  0  0  0
M  END
$$$$
