


 21 19  0  0  1  0            999 V2000
   -0.6062    0.0559    0.5890 C   0  0  0  0  0  0
    0.6058    0.0555    0.5893 C   0  0  0  0  0  0
   -1.6680    0.0558    0.5890 H   0  0  0  0  0  0
    1.6677    0.0549    0.5897 H   0  0  0  0  0  0
   -2.5304   -0.3625    5.0225 C   0  0  0  0  0  0
   -1.2698    0.4921    5.0336 C   0  0  0  0  0  0
    0.0001   -0.3463    5.0740 C   0  0  0  0  0  0
    1.2700    0.4921    5.0337 C   0  0  0  0  0  0
    2.5305   -0.3625    5.0227 C   0  0  0  0  0  0
   -2.5387   -1.0245    4.1561 H   0  0  0  0  0  0
   -2.5823   -0.9888    5.9131 H   0  0  0  0  0  0
   -3.4328    0.2464    4.9897 H   0  0  0  0  0  0
   -1.2865    1.1651    5.8940 H   0  0  0  0  0  0
   -1.2446    1.1263    4.1448 H   0  0  0  0  0  0
    0.0001   -0.9641    5.9771 H   0  0  0  0  0  0
    0.0002   -1.0346    4.2248 H   0  0  0  0  0  0
    1.2866    1.1651    5.8941 H   0  0  0  0  0  0
    1.2449    1.1263    4.1449 H   0  0  0  0  0  0
    2.5389   -1.0245    4.1563 H   0  0  0  0  0  0
    3.4329    0.2464    4.9900 H   0  0  0  0  0  0
    2.5823   -0.9887    5.9134 H   0  0  0  0  0  0
  1  2  3  0  0  0
  1  3  1  0  0  0
  2  4  1  0  0  0
  5  6  1  0  0  0
  6  7  1  0  0  0
  7  8  1  0  0  0
  8  9  1  0  0  0
  5 10  1  0  0  0
  5 11  1  0  0  0
  5 12  1  0  0  0
  6 13  1  0  0  0
  6 14  1  0  0  0
  7 15  1  0  0  0
  7 16  1  0  0  0
  8 17  1  0  0  0
  8 18  1  0  0  0
  9 19  1  0  0  0
  9 20  1  0  0  0
  9 21  1  0  0  0
M  END
$$$$
