


 21 19  0  0  1  0            999 V2000
   -0.6062    0.0559    0.5890 C   0  0  0  0  0  0
    0.6058    0.0555    0.5893 C   0  0  0  0  0  0
   -1.6680    0.0558    0.5890 H   0  0  0  0  0  0
    1.6677    0.0549    0.5897 H   0  0  0  0  0  0
   -2.5304   -0.3444    4.0560 C   0  0  0  0  0  0
   -1.2699    0.5102    4.0670 C   0  0  0  0  0  0
    0.0000   -0.3281    4.1075 C   0  0  0  0  0  0
    1.2699    0.5102    4.0671 C   0  0  0  0  0  0
    2.5305   -0.3444    4.0562 C   0  0  0  0  0  0
   -2.5388   -1.0064    3.1895 H   0  0  0  0  0  0
   -2.5823   -0.9707    4.9465 H   0  0  0  0  0  0
   -3.4328    0.2645    4.0232 H   0  0  0  0  0  0
   -1.2865    1.1832    4.9274 H   0  0  0  0  0  0
   -1.2446    1.1444    3.1782 H   0  0  0  0  0  0
    0.0000   -0.9459    5.0105 H   0  0  0  0  0  0
    0.0001   -1.0164    3.2582 H   0  0  0  0  0  0
    1.2866    1.1832    4.9275 H   0  0  0  0  0  0
    1.2448    1.1444    3.1783 H   0  0  0  0  0  0
    2.5388   -1.0064    3.1898 H   0  0  0  0  0  0
    3.4328    0.2645    4.0234 H   0  0  0  0  0  0
    2.5823   -0.9706    4.9468 H   0  0  0  0  0  0
  1  2  3  0  0  0
  1  3  1  0  0  0
  2  4  1  0  0  0
  5  6  1  0  0  0
  6  7  1  0  0  0
  7  8  1  0  0  0
  8  9  1  0  0  0
  5 10  1  0  0  0
  5 11  1  0  0  0
  5 12  1  0  0  0
  6 13  1  0  0  0
  6 14  1  0  0  0
  7 15  1  0  0  0
  7 16  1  0  0  0
  8 17  1  0  0  0
  8 18  1  0  0  0
  9 19  1  0  0  0
  9 20  1  0  0  0
  9 21  1  0  0  0
M  END
$$$$
