


 21 19  0  0  1  0            999 V2000
   -0.6062    0.0559    0.5890 C   0  0  0  0  0  0
    0.6058    0.0555    0.5893 C   0  0  0  0  0  0
   -1.6680    0.0558    0.5890 H   0  0  0  0  0  0
    1.6677    0.0549    0.5897 H   0  0  0  0  0  0
   -2.5304   -0.3536    4.5446 C   0  0  0  0  0  0
   -1.2699    0.5010    4.5556 C   0  0  0  0  0  0
    0.0001   -0.3373    4.5961 C   0  0  0  0  0  0
    1.2700    0.5011    4.5557 C   0  0  0  0  0  0
    2.5305   -0.3536    4.5448 C   0  0  0  0  0  0
   -2.5387   -1.0155    3.6781 H   0  0  0  0  0  0
   -2.5823   -0.9798    5.4352 H   0  0  0  0  0  0
   -3.4328    0.2553    4.5118 H   0  0  0  0  0  0
   -1.2865    1.1740    5.4160 H   0  0  0  0  0  0
   -1.2446    1.1352    3.6668 H   0  0  0  0  0  0
    0.0001   -0.9551    5.4991 H   0  0  0  0  0  0
    0.0001   -1.0256    3.7468 H   0  0  0  0  0  0
    1.2866    1.1740    5.4161 H   0  0  0  0  0  0
    1.2448    1.1352    3.6669 H   0  0  0  0  0  0
    2.5389   -1.0156    3.6784 H   0  0  0  0  0  0
    3.4329    0.2554    4.5120 H   0  0  0  0  0  0
    2.5823   -0.9798    5.4354 H   0  0  0  0  0  0
  1  2  3  0  0  0
  1  3  1  0  0  0
  2  4  1  0  0  0
  5  6  1  0  0  0
  6  7  1  0  0  0
  7  8  1  0  0  0
  8  9  1  0  0  0
  5 10  1  0  0  0
  5 11  1  0  0  0
  5 12  1  0  0  0
  6 13  1  0  0  0
  6 14  1  0  0  0
  7 15  1  0  0  0
  7 16  1  0  0  0
  8 17  1  0  0  0
  8 18  1  0  0  0
  9 19  1  0  0  0
  9 20  1  0  0  0
  9 21  1  0  0  0
M  END
$$$$
