


 21 19  0  0  1  0            999 V2000
   -0.6062    0.0559    0.5890 C   0  0  0  0  0  0
    0.6058    0.0555    0.5893 C   0  0  0  0  0  0
   -1.6680    0.0558    0.5890 H   0  0  0  0  0  0
    1.6677    0.0549    0.5897 H   0  0  0  0  0  0
   -2.5302   -0.4061    7.3424 C   0  0  0  0  0  0
   -1.2697    0.4485    7.3535 C   0  0  0  0  0  0
    0.0002   -0.3898    7.3939 C   0  0  0  0  0  0
    1.2701    0.4486    7.3536 C   0  0  0  0  0  0
    2.5306   -0.4061    7.3426 C   0  0  0  0  0  0
   -2.5386   -1.0680    6.4760 H   0  0  0  0  0  0
   -2.5821   -1.0323    8.2330 H   0  0  0  0  0  0
   -3.4326    0.2028    7.3097 H   0  0  0  0  0  0
   -1.2863    1.1215    8.2139 H   0  0  0  0  0  0
   -1.2444    1.0827    6.4647 H   0  0  0  0  0  0
    0.0002   -1.0076    8.2970 H   0  0  0  0  0  0
    0.0003   -1.0781    6.5447 H   0  0  0  0  0  0
    1.2867    1.1215    8.2140 H   0  0  0  0  0  0
    1.2450    1.0827    6.4648 H   0  0  0  0  0  0
    2.5390   -1.0681    6.4763 H   0  0  0  0  0  0
    3.4330    0.2029    7.3099 H   0  0  0  0  0  0
    2.5825   -1.0323    8.2333 H   0  0  0  0  0  0
  1  2  3  0  0  0
  1  3  1  0  0  0
  2  4  1  0  0  0
  5  6  1  0  0  0
  6  7  1  0  0  0
  7  8  1  0  0  0
  8  9  1  0  0  0
  5 10  1  0  0  0
  5 11  1  0  0  0
  5 12  1  0  0  0
  6 13  1  0  0  0
  6 14  1  0  0  0
  7 15  1  0  0  0
  7 16  1  0  0  0
  8 17  1  0  0  0
  8 18  1  0  0  0
  9 19  1  0  0  0
  9 20  1  0  0  0
  9 21  1  0  0  0
M  END
$$$$
