


 21 19  0  0  1  0            999 V2000
   -0.6062    0.0559    0.5890 C   0  0  0  0  0  0
    0.6058    0.0555    0.5893 C   0  0  0  0  0  0
   -1.6680    0.0558    0.5890 H   0  0  0  0  0  0
    1.6677    0.0549    0.5897 H   0  0  0  0  0  0
   -2.5303   -0.3772    5.8050 C   0  0  0  0  0  0
   -1.2698    0.4774    5.8161 C   0  0  0  0  0  0
    0.0001   -0.3610    5.8565 C   0  0  0  0  0  0
    1.2700    0.4774    5.8162 C   0  0  0  0  0  0
    2.5306   -0.3772    5.8052 C   0  0  0  0  0  0
   -2.5387   -1.0392    4.9386 H   0  0  0  0  0  0
   -2.5822   -1.0035    6.6956 H   0  0  0  0  0  0
   -3.4327    0.2317    5.7722 H   0  0  0  0  0  0
   -1.2864    1.1504    6.6765 H   0  0  0  0  0  0
   -1.2445    1.1116    4.9273 H   0  0  0  0  0  0
    0.0001   -0.9787    6.7596 H   0  0  0  0  0  0
    0.0002   -1.0493    5.0073 H   0  0  0  0  0  0
    1.2867    1.1504    6.6766 H   0  0  0  0  0  0
    1.2449    1.1116    4.9274 H   0  0  0  0  0  0
    2.5389   -1.0392    4.9388 H   0  0  0  0  0  0
    3.4329    0.2317    5.7725 H   0  0  0  0  0  0
    2.5824   -1.0034    6.6958 H   0  0  0  0  0  0
  1  2  3  0  0  0
  1  3  1  0  0  0
  2  4  1  0  0  0
  5  6  1  0  0  0
  6  7  1  0  0  0
  7  8  1  0  0  0
  8  9  1  0  0  0
  5 10  1  0  0  0
  5 11  1  0  0  0
  5 12  1  0  0  0
  6 13  1  0  0  0
  6 14  1  0  0  0
  7 15  1  0  0  0
  7 16  1  0  0  0
  8 17  1  0  0  0
  8 18  1  0  0  0
  9 19  1  0  0  0
  9 20  1  0  0  0
  9 21  1  0  0  0
M  END
$$$$
