


 15 14  0  0  1  0            999 V2000
   -2.7865   -0.2741    0.0000 O   0  0  0  0  0  0
   -2.6217   -1.2188    0.0000 H   0  0  0  0  0  0
   -1.8992    0.0975    0.0000 H   0  0  0  0  0  0
    0.7801   -0.6099   -1.2076 C   0  0  0  0  0  0
    0.4779    0.7510   -1.2079 C   0  0  0  0  0  0
    0.3273    1.4319    0.0000 C   0  0  0  0  0  0
    0.4779    0.7510    1.2079 C   0  0  0  0  0  0
    0.7801   -0.6099    1.2076 C   0  0  0  0  0  0
    0.9316   -1.2900    0.0000 C   0  0  0  0  0  0
    0.8962   -1.1376   -2.1441 H   0  0  0  0  0  0
    0.3570    1.2782   -2.1440 H   0  0  0  0  0  0
    0.0915    2.4871    0.0000 H   0  0  0  0  0  0
    0.3570    1.2782    2.1440 H   0  0  0  0  0  0
    0.8962   -1.1376    2.1441 H   0  0  0  0  0  0
    1.1685   -2.3452    0.0000 H   0  0  0  0  0  0
  1  2  1  0  0  0
  1  3  1  0  0  0
  4  5  1  0  0  0
  5  6  2  0  0  0
  6  7  1  0  0  0
  7  8  2  0  0  0
  8  9  1  0  0  0
  4  9  2  0  0  0
  4 10  1  0  0  0
  5 11  1  0  0  0
  6 12  1  0  0  0
  7 13  1  0  0  0
  8 14  1  0  0  0
  9 15  1  0  0  0
M  END
$$$$
