


 23 23  0  0  1  0            999 V2000
   -1.4608    1.9093    6.5487 O   0  0  0  0  0  0
   -0.4209    1.2811    6.6635 C   0  0  0  0  0  0
    0.8986    1.8402    6.8911 C   0  0  0  0  0  0
    1.9684    1.0215    6.9626 C   0  0  0  0  0  0
    1.8504   -0.3358    6.8500 N   0  0  0  0  0  0
    2.6638   -0.9280    6.8419 H   0  0  0  0  0  0
    0.6499   -0.9831    6.6237 C   0  0  0  0  0  0
    0.5578   -2.1885    6.4901 O   0  0  0  0  0  0
   -0.4212   -0.1167    6.5705 N   0  0  0  0  0  0
   -1.3161   -0.5486    6.3859 H   0  0  0  0  0  0
    0.9999    2.9074    6.9869 H   0  0  0  0  0  0
    2.9723    1.3901    7.1110 H   0  0  0  0  0  0
   -0.7513   -1.3087   -0.0888 C   0  0  0  0  0  0
   -1.5479   -0.1699   -0.1565 C   0  0  0  0  0  0
   -0.9436    1.0706    0.0198 C   0  0  0  0  0  0
    0.4277    1.1161    0.2573 C   0  0  0  0  0  0
    1.2108    0.0287    0.3297 N   0  0  0  0  0  0
    0.6119   -1.1585    0.1534 C   0  0  0  0  0  0
   -1.1704   -2.2969   -0.2134 H   0  0  0  0  0  0
   -2.6110   -0.2459   -0.3388 H   0  0  0  0  0  0
   -1.5188    1.9845   -0.0116 H   0  0  0  0  0  0
    0.9247    2.0680    0.3975 H   0  0  0  0  0  0
    1.2515   -2.0295    0.2193 H   0  0  0  0  0  0
  1  2  2  0  0  0
  2  3  1  0  0  0
  3  4  2  0  0  0
  4  5  1  0  0  0
  5  6  1  0  0  0
  5  7  1  0  0  0
  7  8  2  0  0  0
  7  9  1  0  0  0
  9 10  1  0  0  0
  2  9  1  0  0  0
  3 11  1  0  0  0
  4 12  1  0  0  0
 13 14  1  0  0  0
 14 15  2  0  0  0
 15 16  1  0  0  0
 16 17  2  0  0  0
 17 18  1  0  0  0
 13 18  2  0  0  0
 13 19  1  0  0  0
 14 20  1  0  0  0
 15 21  1  0  0  0
 16 22  1  0  0  0
 18 23  1  0  0  0
M  END
$$$$
