


 23 23  0  0  1  0            999 V2000
   -1.7700    1.7322    3.0829 O   0  0  0  0  0  0
   -0.7301    1.1040    3.1977 C   0  0  0  0  0  0
    0.5894    1.6631    3.4253 C   0  0  0  0  0  0
    1.6593    0.8444    3.4968 C   0  0  0  0  0  0
    1.5412   -0.5129    3.3843 N   0  0  0  0  0  0
    2.3546   -1.1051    3.3761 H   0  0  0  0  0  0
    0.3408   -1.1601    3.1579 C   0  0  0  0  0  0
    0.2486   -2.3655    3.0243 O   0  0  0  0  0  0
   -0.7304   -0.2938    3.1047 N   0  0  0  0  0  0
   -1.6253   -0.7257    2.9201 H   0  0  0  0  0  0
    0.6907    2.7303    3.5212 H   0  0  0  0  0  0
    2.6631    1.2131    3.6453 H   0  0  0  0  0  0
   -0.7513   -1.3087   -0.0888 C   0  0  0  0  0  0
   -1.5479   -0.1699   -0.1565 C   0  0  0  0  0  0
   -0.9436    1.0706    0.0198 C   0  0  0  0  0  0
    0.4277    1.1161    0.2573 C   0  0  0  0  0  0
    1.2108    0.0287    0.3297 N   0  0  0  0  0  0
    0.6119   -1.1585    0.1534 C   0  0  0  0  0  0
   -1.1704   -2.2969   -0.2134 H   0  0  0  0  0  0
   -2.6110   -0.2459   -0.3388 H   0  0  0  0  0  0
   -1.5188    1.9845   -0.0116 H   0  0  0  0  0  0
    0.9247    2.0680    0.3975 H   0  0  0  0  0  0
    1.2515   -2.0295    0.2193 H   0  0  0  0  0  0
  1  2  2  0  0  0
  2  3  1  0  0  0
  3  4  2  0  0  0
  4  5  1  0  0  0
  5  6  1  0  0  0
  5  7  1  0  0  0
  7  8  2  0  0  0
  7  9  1  0  0  0
  9 10  1  0  0  0
  2  9  1  0  0  0
  3 11  1  0  0  0
  4 12  1  0  0  0
 13 14  1  0  0  0
 14 15  2  0  0  0
 15 16  1  0  0  0
 16 17  2  0  0  0
 17 18  1  0  0  0
 13 18  2  0  0  0
 13 19  1  0  0  0
 14 20  1  0  0  0
 15 21  1  0  0  0
 16 22  1  0  0  0
 18 23  1  0  0  0
M  END
$$$$
