


 23 23  0  0  1  0            999 V2000
   -1.7545    1.7411    3.2570 O   0  0  0  0  0  0
   -0.7146    1.1129    3.3719 C   0  0  0  0  0  0
    0.6049    1.6720    3.5994 C   0  0  0  0  0  0
    1.6748    0.8533    3.6709 C   0  0  0  0  0  0
    1.5567   -0.5040    3.5584 N   0  0  0  0  0  0
    2.3702   -1.0962    3.5502 H   0  0  0  0  0  0
    0.3563   -1.1512    3.3320 C   0  0  0  0  0  0
    0.2641   -2.3567    3.1984 O   0  0  0  0  0  0
   -0.7148   -0.2849    3.2788 N   0  0  0  0  0  0
   -1.6097   -0.7168    3.0942 H   0  0  0  0  0  0
    0.7062    2.7392    3.6953 H   0  0  0  0  0  0
    2.6787    1.2220    3.8194 H   0  0  0  0  0  0
   -0.7513   -1.3087   -0.0888 C   0  0  0  0  0  0
   -1.5479   -0.1699   -0.1565 C   0  0  0  0  0  0
   -0.9436    1.0706    0.0198 C   0  0  0  0  0  0
    0.4277    1.1161    0.2573 C   0  0  0  0  0  0
    1.2108    0.0287    0.3297 N   0  0  0  0  0  0
    0.6119   -1.1585    0.1534 C   0  0  0  0  0  0
   -1.1704   -2.2969   -0.2134 H   0  0  0  0  0  0
   -2.6110   -0.2459   -0.3388 H   0  0  0  0  0  0
   -1.5188    1.9845   -0.0116 H   0  0  0  0  0  0
    0.9247    2.0680    0.3975 H   0  0  0  0  0  0
    1.2515   -2.0295    0.2193 H   0  0  0  0  0  0
  1  2  2  0  0  0
  2  3  1  0  0  0
  3  4  2  0  0  0
  4  5  1  0  0  0
  5  6  1  0  0  0
  5  7  1  0  0  0
  7  8  2  0  0  0
  7  9  1  0  0  0
  9 10  1  0  0  0
  2  9  1  0  0  0
  3 11  1  0  0  0
  4 12  1  0  0  0
 13 14  1  0  0  0
 14 15  2  0  0  0
 15 16  1  0  0  0
 16 17  2  0  0  0
 17 18  1  0  0  0
 13 18  2  0  0  0
 13 19  1  0  0  0
 14 20  1  0  0  0
 15 21  1  0  0  0
 16 22  1  0  0  0
 18 23  1  0  0  0
M  END
$$$$
