


 23 23  0  0  1  0            999 V2000
   -1.7239    1.7586    3.6001 O   0  0  0  0  0  0
   -0.6840    1.1304    3.7150 C   0  0  0  0  0  0
    0.6355    1.6895    3.9425 C   0  0  0  0  0  0
    1.7054    0.8708    4.0141 C   0  0  0  0  0  0
    1.5873   -0.4865    3.9015 N   0  0  0  0  0  0
    2.4008   -1.0786    3.8933 H   0  0  0  0  0  0
    0.3869   -1.1337    3.6751 C   0  0  0  0  0  0
    0.2948   -2.3391    3.5416 O   0  0  0  0  0  0
   -0.6842   -0.2674    3.6220 N   0  0  0  0  0  0
   -1.5791   -0.6992    3.4374 H   0  0  0  0  0  0
    0.7368    2.7567    4.0384 H   0  0  0  0  0  0
    2.7093    1.2395    4.1625 H   0  0  0  0  0  0
   -0.7513   -1.3087   -0.0888 C   0  0  0  0  0  0
   -1.5479   -0.1699   -0.1565 C   0  0  0  0  0  0
   -0.9436    1.0706    0.0198 C   0  0  0  0  0  0
    0.4277    1.1161    0.2573 C   0  0  0  0  0  0
    1.2108    0.0287    0.3297 N   0  0  0  0  0  0
    0.6119   -1.1585    0.1534 C   0  0  0  0  0  0
   -1.1704   -2.2969   -0.2134 H   0  0  0  0  0  0
   -2.6110   -0.2459   -0.3388 H   0  0  0  0  0  0
   -1.5188    1.9845   -0.0116 H   0  0  0  0  0  0
    0.9247    2.0680    0.3975 H   0  0  0  0  0  0
    1.2515   -2.0295    0.2193 H   0  0  0  0  0  0
  1  2  2  0  0  0
  2  3  1  0  0  0
  3  4  2  0  0  0
  4  5  1  0  0  0
  5  6  1  0  0  0
  5  7  1  0  0  0
  7  8  2  0  0  0
  7  9  1  0  0  0
  9 10  1  0  0  0
  2  9  1  0  0  0
  3 11  1  0  0  0
  4 12  1  0  0  0
 13 14  1  0  0  0
 14 15  2  0  0  0
 15 16  1  0  0  0
 16 17  2  0  0  0
 17 18  1  0  0  0
 13 18  2  0  0  0
 13 19  1  0  0  0
 14 20  1  0  0  0
 15 21  1  0  0  0
 16 22  1  0  0  0
 18 23  1  0  0  0
M  END
$$$$
