


 23 23  0  0  1  0            999 V2000
   -1.7857    1.7232    2.9064 O   0  0  0  0  0  0
   -0.7459    1.0950    3.0212 C   0  0  0  0  0  0
    0.5736    1.6541    3.2488 C   0  0  0  0  0  0
    1.6435    0.8354    3.3203 C   0  0  0  0  0  0
    1.5254   -0.5219    3.2078 N   0  0  0  0  0  0
    2.3389   -1.1141    3.1996 H   0  0  0  0  0  0
    0.3250   -1.1691    2.9814 C   0  0  0  0  0  0
    0.2329   -2.3746    2.8478 O   0  0  0  0  0  0
   -0.7461   -0.3028    2.9282 N   0  0  0  0  0  0
   -1.6410   -0.7347    2.7436 H   0  0  0  0  0  0
    0.6750    2.7213    3.3447 H   0  0  0  0  0  0
    2.6474    1.2040    3.4687 H   0  0  0  0  0  0
   -0.7513   -1.3087   -0.0888 C   0  0  0  0  0  0
   -1.5479   -0.1699   -0.1565 C   0  0  0  0  0  0
   -0.9436    1.0706    0.0198 C   0  0  0  0  0  0
    0.4277    1.1161    0.2573 C   0  0  0  0  0  0
    1.2108    0.0287    0.3297 N   0  0  0  0  0  0
    0.6119   -1.1585    0.1534 C   0  0  0  0  0  0
   -1.1704   -2.2969   -0.2134 H   0  0  0  0  0  0
   -2.6110   -0.2459   -0.3388 H   0  0  0  0  0  0
   -1.5188    1.9845   -0.0116 H   0  0  0  0  0  0
    0.9247    2.0680    0.3975 H   0  0  0  0  0  0
    1.2515   -2.0295    0.2193 H   0  0  0  0  0  0
  1  2  2  0  0  0
  2  3  1  0  0  0
  3  4  2  0  0  0
  4  5  1  0  0  0
  5  6  1  0  0  0
  5  7  1  0  0  0
  7  8  2  0  0  0
  7  9  1  0  0  0
  9 10  1  0  0  0
  2  9  1  0  0  0
  3 11  1  0  0  0
  4 12  1  0  0  0
 13 14  1  0  0  0
 14 15  2  0  0  0
 15 16  1  0  0  0
 16 17  2  0  0  0
 17 18  1  0  0  0
 13 18  2  0  0  0
 13 19  1  0  0  0
 14 20  1  0  0  0
 15 21  1  0  0  0
 16 22  1  0  0  0
 18 23  1  0  0  0
M  END
$$$$
