


 23 23  0  0  1  0            999 V2000
   -1.6788    1.7844    4.1050 O   0  0  0  0  0  0
   -0.6389    1.1562    4.2199 C   0  0  0  0  0  0
    0.6806    1.7153    4.4474 C   0  0  0  0  0  0
    1.7504    0.8966    4.5189 C   0  0  0  0  0  0
    1.6324   -0.4607    4.4064 N   0  0  0  0  0  0
    2.4458   -1.0529    4.3982 H   0  0  0  0  0  0
    0.4319   -1.1079    4.1800 C   0  0  0  0  0  0
    0.3398   -2.3133    4.0464 O   0  0  0  0  0  0
   -0.6392   -0.2416    4.1268 N   0  0  0  0  0  0
   -1.5341   -0.6734    3.9422 H   0  0  0  0  0  0
    0.7819    2.7825    4.5433 H   0  0  0  0  0  0
    2.7543    1.2653    4.6674 H   0  0  0  0  0  0
   -0.7513   -1.3087   -0.0888 C   0  0  0  0  0  0
   -1.5479   -0.1699   -0.1565 C   0  0  0  0  0  0
   -0.9436    1.0706    0.0198 C   0  0  0  0  0  0
    0.4277    1.1161    0.2573 C   0  0  0  0  0  0
    1.2108    0.0287    0.3297 N   0  0  0  0  0  0
    0.6119   -1.1585    0.1534 C   0  0  0  0  0  0
   -1.1704   -2.2969   -0.2134 H   0  0  0  0  0  0
   -2.6110   -0.2459   -0.3388 H   0  0  0  0  0  0
   -1.5188    1.9845   -0.0116 H   0  0  0  0  0  0
    0.9247    2.0680    0.3975 H   0  0  0  0  0  0
    1.2515   -2.0295    0.2193 H   0  0  0  0  0  0
  1  2  2  0  0  0
  2  3  1  0  0  0
  3  4  2  0  0  0
  4  5  1  0  0  0
  5  6  1  0  0  0
  5  7  1  0  0  0
  7  8  2  0  0  0
  7  9  1  0  0  0
  9 10  1  0  0  0
  2  9  1  0  0  0
  3 11  1  0  0  0
  4 12  1  0  0  0
 13 14  1  0  0  0
 14 15  2  0  0  0
 15 16  1  0  0  0
 16 17  2  0  0  0
 17 18  1  0  0  0
 13 18  2  0  0  0
 13 19  1  0  0  0
 14 20  1  0  0  0
 15 21  1  0  0  0
 16 22  1  0  0  0
 18 23  1  0  0  0
M  END
$$$$
