


 23 23  0  0  1  0            999 V2000
   -1.7391    1.7499    3.4294 O   0  0  0  0  0  0
   -0.6992    1.1217    3.5443 C   0  0  0  0  0  0
    0.6203    1.6808    3.7718 C   0  0  0  0  0  0
    1.6902    0.8621    3.8433 C   0  0  0  0  0  0
    1.5721   -0.4952    3.7308 N   0  0  0  0  0  0
    2.3855   -1.0874    3.7226 H   0  0  0  0  0  0
    0.3717   -1.1424    3.5044 C   0  0  0  0  0  0
    0.2795   -2.3478    3.3708 O   0  0  0  0  0  0
   -0.6995   -0.2761    3.4513 N   0  0  0  0  0  0
   -1.5943   -0.7080    3.2666 H   0  0  0  0  0  0
    0.7216    2.7480    3.8677 H   0  0  0  0  0  0
    2.6941    1.2308    3.9918 H   0  0  0  0  0  0
   -0.7513   -1.3087   -0.0888 C   0  0  0  0  0  0
   -1.5479   -0.1699   -0.1565 C   0  0  0  0  0  0
   -0.9436    1.0706    0.0198 C   0  0  0  0  0  0
    0.4277    1.1161    0.2573 C   0  0  0  0  0  0
    1.2108    0.0287    0.3297 N   0  0  0  0  0  0
    0.6119   -1.1585    0.1534 C   0  0  0  0  0  0
   -1.1704   -2.2969   -0.2134 H   0  0  0  0  0  0
   -2.6110   -0.2459   -0.3388 H   0  0  0  0  0  0
   -1.5188    1.9845   -0.0116 H   0  0  0  0  0  0
    0.9247    2.0680    0.3975 H   0  0  0  0  0  0
    1.2515   -2.0295    0.2193 H   0  0  0  0  0  0
  1  2  2  0  0  0
  2  3  1  0  0  0
  3  4  2  0  0  0
  4  5  1  0  0  0
  5  6  1  0  0  0
  5  7  1  0  0  0
  7  8  2  0  0  0
  7  9  1  0  0  0
  9 10  1  0  0  0
  2  9  1  0  0  0
  3 11  1  0  0  0
  4 12  1  0  0  0
 13 14  1  0  0  0
 14 15  2  0  0  0
 15 16  1  0  0  0
 16 17  2  0  0  0
 17 18  1  0  0  0
 13 18  2  0  0  0
 13 19  1  0  0  0
 14 20  1  0  0  0
 15 21  1  0  0  0
 16 22  1  0  0  0
 18 23  1  0  0  0
M  END
$$$$
