


 23 23  0  0  1  0            999 V2000
   -1.6052    1.8266    4.9301 O   0  0  0  0  0  0
   -0.5653    1.1984    5.0450 C   0  0  0  0  0  0
    0.7542    1.7575    5.2725 C   0  0  0  0  0  0
    1.8240    0.9388    5.3441 C   0  0  0  0  0  0
    1.7060   -0.4185    5.2315 N   0  0  0  0  0  0
    2.5194   -1.0107    5.2233 H   0  0  0  0  0  0
    0.5055   -1.0658    5.0051 C   0  0  0  0  0  0
    0.4134   -2.2712    4.8715 O   0  0  0  0  0  0
   -0.5656   -0.1994    4.9520 N   0  0  0  0  0  0
   -1.4605   -0.6313    4.7674 H   0  0  0  0  0  0
    0.8555    2.8247    5.3684 H   0  0  0  0  0  0
    2.8279    1.3074    5.4925 H   0  0  0  0  0  0
   -0.7513   -1.3087   -0.0888 C   0  0  0  0  0  0
   -1.5479   -0.1699   -0.1565 C   0  0  0  0  0  0
   -0.9436    1.0706    0.0198 C   0  0  0  0  0  0
    0.4277    1.1161    0.2573 C   0  0  0  0  0  0
    1.2108    0.0287    0.3297 N   0  0  0  0  0  0
    0.6119   -1.1585    0.1534 C   0  0  0  0  0  0
   -1.1704   -2.2969   -0.2134 H   0  0  0  0  0  0
   -2.6110   -0.2459   -0.3388 H   0  0  0  0  0  0
   -1.5188    1.9845   -0.0116 H   0  0  0  0  0  0
    0.9247    2.0680    0.3975 H   0  0  0  0  0  0
    1.2515   -2.0295    0.2193 H   0  0  0  0  0  0
  1  2  2  0  0  0
  2  3  1  0  0  0
  3  4  2  0  0  0
  4  5  1  0  0  0
  5  6  1  0  0  0
  5  7  1  0  0  0
  7  8  2  0  0  0
  7  9  1  0  0  0
  9 10  1  0  0  0
  2  9  1  0  0  0
  3 11  1  0  0  0
  4 12  1  0  0  0
 13 14  1  0  0  0
 14 15  2  0  0  0
 15 16  1  0  0  0
 16 17  2  0  0  0
 17 18  1  0  0  0
 13 18  2  0  0  0
 13 19  1  0  0  0
 14 20  1  0  0  0
 15 21  1  0  0  0
 16 22  1  0  0  0
 18 23  1  0  0  0
M  END
$$$$
