


 22 22  0  0  1  0            999 V2000
   -2.0765   -1.3330    0.0393 C   0  0  0  0  0  0
   -3.3163   -0.7033    0.0176 C   0  0  0  0  0  0
   -3.3489    0.6870   -0.0071 C   0  0  0  0  0  0
   -2.1431    1.3826   -0.0089 C   0  0  0  0  0  0
   -0.9412    0.7900    0.0117 N   0  0  0  0  0  0
   -0.9228   -0.5524    0.0354 C   0  0  0  0  0  0
   -1.9965   -2.4106    0.0589 H   0  0  0  0  0  0
   -4.2316   -1.2791    0.0198 H   0  0  0  0  0  0
   -4.2854    1.2261   -0.0247 H   0  0  0  0  0  0
   -2.1381    2.4657   -0.0278 H   0  0  0  0  0  0
    0.0572   -1.0156    0.0514 H   0  0  0  0  0  0
    5.1240   -0.8434    0.0203 C   0  0  0  0  0  0
    5.0916    0.5469   -0.0074 C   0  0  0  0  0  0
    3.8520    1.1772   -0.0099 C   0  0  0  0  0  0
    2.6981    0.3972    0.0153 C   0  0  0  0  0  0
    2.7162   -0.9452    0.0423 N   0  0  0  0  0  0
    3.9180   -1.5383    0.0443 C   0  0  0  0  0  0
    6.0604   -1.3829    0.0234 H   0  0  0  0  0  0
    6.0070    1.1222   -0.0266 H   0  0  0  0  0  0
    3.7722    2.2548   -0.0310 H   0  0  0  0  0  0
    1.7181    0.8609    0.0137 H   0  0  0  0  0  0
    3.9128   -2.6213    0.0662 H   0  0  0  0  0  0
  1  2  1  0  0  0
  2  3  2  0  0  0
  3  4  1  0  0  0
  4  5  2  0  0  0
  5  6  1  0  0  0
  1  6  2  0  0  0
  1  7  1  0  0  0
  2  8  1  0  0  0
  3  9  1  0  0  0
  4 10  1  0  0  0
  6 11  1  0  0  0
 12 13  1  0  0  0
 13 14  2  0  0  0
 14 15  1  0  0  0
 15 16  2  0  0  0
 16 17  1  0  0  0
 12 17  2  0  0  0
 12 18  1  0  0  0
 13 19  1  0  0  0
 14 20  1  0  0  0
 15 21  1  0  0  0
 17 22  1  0  0  0
M  END
$$$$
