


 22 22  0  0  1  0            999 V2000
   -0.6727   -1.1947    0.3667 C   0  0  0  0  0  0
   -1.3472    0.0031    0.1521 C   0  0  0  0  0  0
   -0.6646    1.1941    0.3790 C   0  0  0  0  0  0
    0.6589    1.1350    0.8089 C   0  0  0  0  0  0
    1.3228   -0.0104    1.0192 N   0  0  0  0  0  0
    0.6513   -1.1490    0.7968 C   0  0  0  0  0  0
   -1.1572   -2.1473    0.2065 H   0  0  0  0  0  0
   -2.3754    0.0084   -0.1823 H   0  0  0  0  0  0
   -1.1426    2.1516    0.2287 H   0  0  0  0  0  0
    1.2141    2.0459    0.9954 H   0  0  0  0  0  0
    1.2004   -2.0655    0.9737 H   0  0  0  0  0  0
    0.1733   -0.0267    7.0396 C   0  0  0  0  0  0
   -1.1827   -0.0281    6.7271 C   0  0  0  0  0  0
   -2.1008   -0.0224    7.7723 C   0  0  0  0  0  0
   -1.6252   -0.0155    9.0813 C   0  0  0  0  0  0
   -0.3239   -0.0141    9.4008 N   0  0  0  0  0  0
    0.5467   -0.0197    8.3814 C   0  0  0  0  0  0
    0.9208   -0.0309    6.2585 H   0  0  0  0  0  0
   -1.5124   -0.0336    5.6969 H   0  0  0  0  0  0
   -3.1653   -0.0233    7.5836 H   0  0  0  0  0  0
   -2.3174   -0.0109    9.9145 H   0  0  0  0  0  0
    1.5946   -0.0184    8.6557 H   0  0  0  0  0  0
  1  2  1  0  0  0
  2  3  2  0  0  0
  3  4  1  0  0  0
  4  5  2  0  0  0
  5  6  1  0  0  0
  1  6  2  0  0  0
  1  7  1  0  0  0
  2  8  1  0  0  0
  3  9  1  0  0  0
  4 10  1  0  0  0
  6 11  1  0  0  0
 12 13  1  0  0  0
 13 14  2  0  0  0
 14 15  1  0  0  0
 15 16  2  0  0  0
 16 17  1  0  0  0
 12 17  2  0  0  0
 12 18  1  0  0  0
 13 19  1  0  0  0
 14 20  1  0  0  0
 15 21  1  0  0  0
 17 22  1  0  0  0
M  END
$$$$
