


 22 22  0  0  1  0            999 V2000
   -2.0765   -1.3330    0.0393 C   0  0  0  0  0  0
   -3.3163   -0.7033    0.0176 C   0  0  0  0  0  0
   -3.3489    0.6870   -0.0071 C   0  0  0  0  0  0
   -2.1431    1.3826   -0.0089 C   0  0  0  0  0  0
   -0.9412    0.7900    0.0117 N   0  0  0  0  0  0
   -0.9228   -0.5524    0.0354 C   0  0  0  0  0  0
   -1.9965   -2.4106    0.0589 H   0  0  0  0  0  0
   -4.2316   -1.2791    0.0198 H   0  0  0  0  0  0
   -4.2854    1.2261   -0.0247 H   0  0  0  0  0  0
   -2.1381    2.4657   -0.0278 H   0  0  0  0  0  0
    0.0572   -1.0156    0.0514 H   0  0  0  0  0  0
    4.9437   -0.8482    0.0206 C   0  0  0  0  0  0
    4.9114    0.5421   -0.0071 C   0  0  0  0  0  0
    3.6717    1.1724   -0.0096 C   0  0  0  0  0  0
    2.5178    0.3924    0.0156 C   0  0  0  0  0  0
    2.5360   -0.9500    0.0425 N   0  0  0  0  0  0
    3.7378   -1.5431    0.0446 C   0  0  0  0  0  0
    5.8801   -1.3877    0.0237 H   0  0  0  0  0  0
    5.8268    1.1174   -0.0263 H   0  0  0  0  0  0
    3.5919    2.2500   -0.0307 H   0  0  0  0  0  0
    1.5379    0.8561    0.0139 H   0  0  0  0  0  0
    3.7325   -2.6261    0.0665 H   0  0  0  0  0  0
  1  2  1  0  0  0
  2  3  2  0  0  0
  3  4  1  0  0  0
  4  5  2  0  0  0
  5  6  1  0  0  0
  1  6  2  0  0  0
  1  7  1  0  0  0
  2  8  1  0  0  0
  3  9  1  0  0  0
  4 10  1  0  0  0
  6 11  1  0  0  0
 12 13  1  0  0  0
 13 14  2  0  0  0
 14 15  1  0  0  0
 15 16  2  0  0  0
 16 17  1  0  0  0
 12 17  2  0  0  0
 12 18  1  0  0  0
 13 19  1  0  0  0
 14 20  1  0  0  0
 15 21  1  0  0  0
 17 22  1  0  0  0
M  END
$$$$
