


 22 22  0  0  1  0            999 V2000
   -0.3982   -1.0288    0.2810 C   0  0  0  0  0  0
   -1.1958    0.1066    0.1954 C   0  0  0  0  0  0
   -0.5871    1.3174   -0.1201 C   0  0  0  0  0  0
    0.7886    1.3397   -0.3322 C   0  0  0  0  0  0
    1.5725    0.2546   -0.2565 N   0  0  0  0  0  0
    0.9694   -0.9032    0.0445 C   0  0  0  0  0  0
   -0.8184   -1.9917    0.5336 H   0  0  0  0  0  0
   -2.2607    0.0495    0.3734 H   0  0  0  0  0  0
   -1.1618    2.2295   -0.2005 H   0  0  0  0  0  0
    1.2884    2.2688   -0.5785 H   0  0  0  0  0  0
    1.6136   -1.7722    0.1023 H   0  0  0  0  0  0
   -1.2901    0.7229    4.4587 C   0  0  0  0  0  0
    0.0093    1.1122    4.1484 C   0  0  0  0  0  0
    0.9889    0.1293    4.0651 C   0  0  0  0  0  0
    0.6264   -1.1959    4.2983 C   0  0  0  0  0  0
   -0.6197   -1.5888    4.5942 N   0  0  0  0  0  0
   -1.5521   -0.6281    4.6681 C   0  0  0  0  0  0
   -2.0887    1.4474    4.5370 H   0  0  0  0  0  0
    0.2513    2.1512    3.9726 H   0  0  0  0  0  0
    2.0112    0.3760    3.8166 H   0  0  0  0  0  0
    1.3702   -1.9814    4.2418 H   0  0  0  0  0  0
   -2.5549   -0.9591    4.9103 H   0  0  0  0  0  0
  1  2  1  0  0  0
  2  3  2  0  0  0
  3  4  1  0  0  0
  4  5  2  0  0  0
  5  6  1  0  0  0
  1  6  2  0  0  0
  1  7  1  0  0  0
  2  8  1  0  0  0
  3  9  1  0  0  0
  4 10  1  0  0  0
  6 11  1  0  0  0
 12 13  1  0  0  0
 13 14  2  0  0  0
 14 15  1  0  0  0
 15 16  2  0  0  0
 16 17  1  0  0  0
 12 17  2  0  0  0
 12 18  1  0  0  0
 13 19  1  0  0  0
 14 20  1  0  0  0
 15 21  1  0  0  0
 17 22  1  0  0  0
M  END
$$$$
