


 22 22  0  0  1  0            999 V2000
   -0.6727   -1.1947    0.3667 C   0  0  0  0  0  0
   -1.3472    0.0031    0.1521 C   0  0  0  0  0  0
   -0.6646    1.1941    0.3790 C   0  0  0  0  0  0
    0.6589    1.1350    0.8089 C   0  0  0  0  0  0
    1.3228   -0.0104    1.0192 N   0  0  0  0  0  0
    0.6513   -1.1490    0.7968 C   0  0  0  0  0  0
   -1.1572   -2.1473    0.2065 H   0  0  0  0  0  0
   -2.3754    0.0084   -0.1823 H   0  0  0  0  0  0
   -1.1426    2.1516    0.2287 H   0  0  0  0  0  0
    1.2141    2.0459    0.9954 H   0  0  0  0  0  0
    1.2004   -2.0655    0.9737 H   0  0  0  0  0  0
    0.9943   -0.0104    4.2609 C   0  0  0  0  0  0
   -0.3617   -0.0119    3.9485 C   0  0  0  0  0  0
   -1.2798   -0.0061    4.9936 C   0  0  0  0  0  0
   -0.8042    0.0008    6.3026 C   0  0  0  0  0  0
    0.4970    0.0022    6.6221 N   0  0  0  0  0  0
    1.3677   -0.0034    5.6027 C   0  0  0  0  0  0
    1.7418   -0.0146    3.4798 H   0  0  0  0  0  0
   -0.6914   -0.0173    2.9182 H   0  0  0  0  0  0
   -2.3443   -0.0070    4.8049 H   0  0  0  0  0  0
   -1.4964    0.0054    7.1358 H   0  0  0  0  0  0
    2.4156   -0.0021    5.8770 H   0  0  0  0  0  0
  1  2  1  0  0  0
  2  3  2  0  0  0
  3  4  1  0  0  0
  4  5  2  0  0  0
  5  6  1  0  0  0
  1  6  2  0  0  0
  1  7  1  0  0  0
  2  8  1  0  0  0
  3  9  1  0  0  0
  4 10  1  0  0  0
  6 11  1  0  0  0
 12 13  1  0  0  0
 13 14  2  0  0  0
 14 15  1  0  0  0
 15 16  2  0  0  0
 16 17  1  0  0  0
 12 17  2  0  0  0
 12 18  1  0  0  0
 13 19  1  0  0  0
 14 20  1  0  0  0
 15 21  1  0  0  0
 17 22  1  0  0  0
M  END
$$$$
