


 22 22  0  0  1  0            999 V2000
   -0.3982   -1.0288    0.2810 C   0  0  0  0  0  0
   -1.1958    0.1066    0.1954 C   0  0  0  0  0  0
   -0.5871    1.3174   -0.1201 C   0  0  0  0  0  0
    0.7886    1.3397   -0.3322 C   0  0  0  0  0  0
    1.5725    0.2546   -0.2565 N   0  0  0  0  0  0
    0.9694   -0.9032    0.0445 C   0  0  0  0  0  0
   -0.8184   -1.9917    0.5336 H   0  0  0  0  0  0
   -2.2607    0.0495    0.3734 H   0  0  0  0  0  0
   -1.1618    2.2295   -0.2005 H   0  0  0  0  0  0
    1.2884    2.2688   -0.5785 H   0  0  0  0  0  0
    1.6136   -1.7722    0.1023 H   0  0  0  0  0  0
   -1.3929    0.6357    5.3557 C   0  0  0  0  0  0
   -0.0935    1.0250    5.0454 C   0  0  0  0  0  0
    0.8861    0.0421    4.9621 C   0  0  0  0  0  0
    0.5236   -1.2831    5.1953 C   0  0  0  0  0  0
   -0.7224   -1.6760    5.4912 N   0  0  0  0  0  0
   -1.6549   -0.7153    5.5651 C   0  0  0  0  0  0
   -2.1915    1.3602    5.4340 H   0  0  0  0  0  0
    0.1485    2.0640    4.8696 H   0  0  0  0  0  0
    1.9084    0.2888    4.7136 H   0  0  0  0  0  0
    1.2675   -2.0686    5.1388 H   0  0  0  0  0  0
   -2.6577   -1.0463    5.8073 H   0  0  0  0  0  0
  1  2  1  0  0  0
  2  3  2  0  0  0
  3  4  1  0  0  0
  4  5  2  0  0  0
  5  6  1  0  0  0
  1  6  2  0  0  0
  1  7  1  0  0  0
  2  8  1  0  0  0
  3  9  1  0  0  0
  4 10  1  0  0  0
  6 11  1  0  0  0
 12 13  1  0  0  0
 13 14  2  0  0  0
 14 15  1  0  0  0
 15 16  2  0  0  0
 16 17  1  0  0  0
 12 17  2  0  0  0
 12 18  1  0  0  0
 13 19  1  0  0  0
 14 20  1  0  0  0
 15 21  1  0  0  0
 17 22  1  0  0  0
M  END
$$$$
