


 22 22  0  0  1  0            999 V2000
   -2.0765   -1.3330    0.0393 C   0  0  0  0  0  0
   -3.3163   -0.7033    0.0176 C   0  0  0  0  0  0
   -3.3489    0.6870   -0.0071 C   0  0  0  0  0  0
   -2.1431    1.3826   -0.0089 C   0  0  0  0  0  0
   -0.9412    0.7900    0.0117 N   0  0  0  0  0  0
   -0.9228   -0.5524    0.0354 C   0  0  0  0  0  0
   -1.9965   -2.4106    0.0589 H   0  0  0  0  0  0
   -4.2316   -1.2791    0.0198 H   0  0  0  0  0  0
   -4.2854    1.2261   -0.0247 H   0  0  0  0  0  0
   -2.1381    2.4657   -0.0278 H   0  0  0  0  0  0
    0.0572   -1.0156    0.0514 H   0  0  0  0  0  0
    6.4893   -0.8071    0.0185 C   0  0  0  0  0  0
    6.4570    0.5832   -0.0092 C   0  0  0  0  0  0
    5.2174    1.2135   -0.0117 C   0  0  0  0  0  0
    4.0634    0.4335    0.0135 C   0  0  0  0  0  0
    4.0816   -0.9089    0.0404 N   0  0  0  0  0  0
    5.2834   -1.5021    0.0425 C   0  0  0  0  0  0
    7.4258   -1.3467    0.0216 H   0  0  0  0  0  0
    7.3724    1.1584   -0.0284 H   0  0  0  0  0  0
    5.1376    2.2910   -0.0328 H   0  0  0  0  0  0
    3.0835    0.8971    0.0118 H   0  0  0  0  0  0
    5.2782   -2.5851    0.0644 H   0  0  0  0  0  0
  1  2  1  0  0  0
  2  3  2  0  0  0
  3  4  1  0  0  0
  4  5  2  0  0  0
  5  6  1  0  0  0
  1  6  2  0  0  0
  1  7  1  0  0  0
  2  8  1  0  0  0
  3  9  1  0  0  0
  4 10  1  0  0  0
  6 11  1  0  0  0
 12 13  1  0  0  0
 13 14  2  0  0  0
 14 15  1  0  0  0
 15 16  2  0  0  0
 16 17  1  0  0  0
 12 17  2  0  0  0
 12 18  1  0  0  0
 13 19  1  0  0  0
 14 20  1  0  0  0
 15 21  1  0  0  0
 17 22  1  0  0  0
M  END
$$$$
