


 22 22  0  0  1  0            999 V2000
   -2.0765   -1.3330    0.0393 C   0  0  0  0  0  0
   -3.3163   -0.7033    0.0176 C   0  0  0  0  0  0
   -3.3489    0.6870   -0.0071 C   0  0  0  0  0  0
   -2.1431    1.3826   -0.0089 C   0  0  0  0  0  0
   -0.9412    0.7900    0.0117 N   0  0  0  0  0  0
   -0.9228   -0.5524    0.0354 C   0  0  0  0  0  0
   -1.9965   -2.4106    0.0589 H   0  0  0  0  0  0
   -4.2316   -1.2791    0.0198 H   0  0  0  0  0  0
   -4.2854    1.2261   -0.0247 H   0  0  0  0  0  0
   -2.1381    2.4657   -0.0278 H   0  0  0  0  0  0
    0.0572   -1.0156    0.0514 H   0  0  0  0  0  0
    4.7501   -0.8533    0.0209 C   0  0  0  0  0  0
    4.7177    0.5370   -0.0069 C   0  0  0  0  0  0
    3.4781    1.1673   -0.0094 C   0  0  0  0  0  0
    2.3242    0.3873    0.0158 C   0  0  0  0  0  0
    2.3423   -0.9551    0.0428 N   0  0  0  0  0  0
    3.5441   -1.5483    0.0448 C   0  0  0  0  0  0
    5.6865   -1.3929    0.0239 H   0  0  0  0  0  0
    5.6331    1.1122   -0.0261 H   0  0  0  0  0  0
    3.3983    2.2448   -0.0305 H   0  0  0  0  0  0
    1.3442    0.8509    0.0142 H   0  0  0  0  0  0
    3.5389   -2.6312    0.0667 H   0  0  0  0  0  0
  1  2  1  0  0  0
  2  3  2  0  0  0
  3  4  1  0  0  0
  4  5  2  0  0  0
  5  6  1  0  0  0
  1  6  2  0  0  0
  1  7  1  0  0  0
  2  8  1  0  0  0
  3  9  1  0  0  0
  4 10  1  0  0  0
  6 11  1  0  0  0
 12 13  1  0  0  0
 13 14  2  0  0  0
 14 15  1  0  0  0
 15 16  2  0  0  0
 16 17  1  0  0  0
 12 17  2  0  0  0
 12 18  1  0  0  0
 13 19  1  0  0  0
 14 20  1  0  0  0
 15 21  1  0  0  0
 17 22  1  0  0  0
M  END
$$$$
