


 22 22  0  0  1  0            999 V2000
   -0.3982   -1.0288    0.2810 C   0  0  0  0  0  0
   -1.1958    0.1066    0.1954 C   0  0  0  0  0  0
   -0.5871    1.3174   -0.1201 C   0  0  0  0  0  0
    0.7886    1.3397   -0.3322 C   0  0  0  0  0  0
    1.5725    0.2546   -0.2565 N   0  0  0  0  0  0
    0.9694   -0.9032    0.0445 C   0  0  0  0  0  0
   -0.8184   -1.9917    0.5336 H   0  0  0  0  0  0
   -2.2607    0.0495    0.3734 H   0  0  0  0  0  0
   -1.1618    2.2295   -0.2005 H   0  0  0  0  0  0
    1.2884    2.2688   -0.5785 H   0  0  0  0  0  0
    1.6136   -1.7722    0.1023 H   0  0  0  0  0  0
   -1.1937    0.8048    3.6166 C   0  0  0  0  0  0
    0.1058    1.1940    3.3064 C   0  0  0  0  0  0
    1.0853    0.2111    3.2230 C   0  0  0  0  0  0
    0.7229   -1.1140    3.4562 C   0  0  0  0  0  0
   -0.5232   -1.5069    3.7522 N   0  0  0  0  0  0
   -1.4557   -0.5463    3.8260 C   0  0  0  0  0  0
   -1.9922    1.5293    3.6949 H   0  0  0  0  0  0
    0.3478    2.2330    3.1305 H   0  0  0  0  0  0
    2.1076    0.4579    2.9746 H   0  0  0  0  0  0
    1.4667   -1.8996    3.3998 H   0  0  0  0  0  0
   -2.4585   -0.8773    4.0682 H   0  0  0  0  0  0
  1  2  1  0  0  0
  2  3  2  0  0  0
  3  4  1  0  0  0
  4  5  2  0  0  0
  5  6  1  0  0  0
  1  6  2  0  0  0
  1  7  1  0  0  0
  2  8  1  0  0  0
  3  9  1  0  0  0
  4 10  1  0  0  0
  6 11  1  0  0  0
 12 13  1  0  0  0
 13 14  2  0  0  0
 14 15  1  0  0  0
 15 16  2  0  0  0
 16 17  1  0  0  0
 12 17  2  0  0  0
 12 18  1  0  0  0
 13 19  1  0  0  0
 14 20  1  0  0  0
 15 21  1  0  0  0
 17 22  1  0  0  0
M  END
$$$$
