


 22 22  0  0  1  0            999 V2000
   -0.6727   -1.1947    0.3667 C   0  0  0  0  0  0
   -1.3472    0.0031    0.1521 C   0  0  0  0  0  0
   -0.6646    1.1941    0.3790 C   0  0  0  0  0  0
    0.6589    1.1350    0.8089 C   0  0  0  0  0  0
    1.3228   -0.0104    1.0192 N   0  0  0  0  0  0
    0.6513   -1.1490    0.7968 C   0  0  0  0  0  0
   -1.1572   -2.1473    0.2065 H   0  0  0  0  0  0
   -2.3754    0.0084   -0.1823 H   0  0  0  0  0  0
   -1.1426    2.1516    0.2287 H   0  0  0  0  0  0
    1.2141    2.0459    0.9954 H   0  0  0  0  0  0
    1.2004   -2.0655    0.9737 H   0  0  0  0  0  0
    0.5569   -0.0191    5.7413 C   0  0  0  0  0  0
   -0.7991   -0.0205    5.4289 C   0  0  0  0  0  0
   -1.7172   -0.0148    6.4740 C   0  0  0  0  0  0
   -1.2416   -0.0079    7.7830 C   0  0  0  0  0  0
    0.0597   -0.0064    8.1025 N   0  0  0  0  0  0
    0.9303   -0.0121    7.0831 C   0  0  0  0  0  0
    1.3044   -0.0233    4.9602 H   0  0  0  0  0  0
   -1.1288   -0.0260    4.3986 H   0  0  0  0  0  0
   -2.7817   -0.0157    6.2853 H   0  0  0  0  0  0
   -1.9338   -0.0033    8.6162 H   0  0  0  0  0  0
    1.9782   -0.0108    7.3574 H   0  0  0  0  0  0
  1  2  1  0  0  0
  2  3  2  0  0  0
  3  4  1  0  0  0
  4  5  2  0  0  0
  5  6  1  0  0  0
  1  6  2  0  0  0
  1  7  1  0  0  0
  2  8  1  0  0  0
  3  9  1  0  0  0
  4 10  1  0  0  0
  6 11  1  0  0  0
 12 13  1  0  0  0
 13 14  2  0  0  0
 14 15  1  0  0  0
 15 16  2  0  0  0
 16 17  1  0  0  0
 12 17  2  0  0  0
 12 18  1  0  0  0
 13 19  1  0  0  0
 14 20  1  0  0  0
 15 21  1  0  0  0
 17 22  1  0  0  0
M  END
$$$$
