


 22 22  0  0  1  0            999 V2000
   -2.0765   -1.3330    0.0393 C   0  0  0  0  0  0
   -3.3163   -0.7033    0.0176 C   0  0  0  0  0  0
   -3.3489    0.6870   -0.0071 C   0  0  0  0  0  0
   -2.1431    1.3826   -0.0089 C   0  0  0  0  0  0
   -0.9412    0.7900    0.0117 N   0  0  0  0  0  0
   -0.9228   -0.5524    0.0354 C   0  0  0  0  0  0
   -1.9965   -2.4106    0.0589 H   0  0  0  0  0  0
   -4.2316   -1.2791    0.0198 H   0  0  0  0  0  0
   -4.2854    1.2261   -0.0247 H   0  0  0  0  0  0
   -2.1381    2.4657   -0.0278 H   0  0  0  0  0  0
    0.0572   -1.0156    0.0514 H   0  0  0  0  0  0
    5.7684   -0.8263    0.0195 C   0  0  0  0  0  0
    5.7361    0.5640   -0.0083 C   0  0  0  0  0  0
    4.4964    1.1943   -0.0107 C   0  0  0  0  0  0
    3.3425    0.4143    0.0144 C   0  0  0  0  0  0
    3.3607   -0.9280    0.0414 N   0  0  0  0  0  0
    4.5625   -1.5212    0.0435 C   0  0  0  0  0  0
    6.7049   -1.3658    0.0226 H   0  0  0  0  0  0
    6.6515    1.1393   -0.0274 H   0  0  0  0  0  0
    4.4166    2.2719   -0.0318 H   0  0  0  0  0  0
    2.3626    0.8780    0.0128 H   0  0  0  0  0  0
    4.5573   -2.6042    0.0654 H   0  0  0  0  0  0
  1  2  1  0  0  0
  2  3  2  0  0  0
  3  4  1  0  0  0
  4  5  2  0  0  0
  5  6  1  0  0  0
  1  6  2  0  0  0
  1  7  1  0  0  0
  2  8  1  0  0  0
  3  9  1  0  0  0
  4 10  1  0  0  0
  6 11  1  0  0  0
 12 13  1  0  0  0
 13 14  2  0  0  0
 14 15  1  0  0  0
 15 16  2  0  0  0
 16 17  1  0  0  0
 12 17  2  0  0  0
 12 18  1  0  0  0
 13 19  1  0  0  0
 14 20  1  0  0  0
 15 21  1  0  0  0
 17 22  1  0  0  0
M  END
$$$$
