


 22 22  0  0  1  0            999 V2000
   -0.3982   -1.0288    0.2810 C   0  0  0  0  0  0
   -1.1958    0.1066    0.1954 C   0  0  0  0  0  0
   -0.5871    1.3174   -0.1201 C   0  0  0  0  0  0
    0.7886    1.3397   -0.3322 C   0  0  0  0  0  0
    1.5725    0.2546   -0.2565 N   0  0  0  0  0  0
    0.9694   -0.9032    0.0445 C   0  0  0  0  0  0
   -0.8184   -1.9917    0.5336 H   0  0  0  0  0  0
   -2.2607    0.0495    0.3734 H   0  0  0  0  0  0
   -1.1618    2.2295   -0.2005 H   0  0  0  0  0  0
    1.2884    2.2688   -0.5785 H   0  0  0  0  0  0
    1.6136   -1.7722    0.1023 H   0  0  0  0  0  0
   -1.2131    0.7883    3.7865 C   0  0  0  0  0  0
    0.0863    1.1775    3.4762 C   0  0  0  0  0  0
    1.0659    0.1946    3.3929 C   0  0  0  0  0  0
    0.7034   -1.1305    3.6261 C   0  0  0  0  0  0
   -0.5426   -1.5234    3.9220 N   0  0  0  0  0  0
   -1.4751   -0.5628    3.9959 C   0  0  0  0  0  0
   -2.0117    1.5128    3.8648 H   0  0  0  0  0  0
    0.3283    2.2165    3.3004 H   0  0  0  0  0  0
    2.0882    0.4414    3.1444 H   0  0  0  0  0  0
    1.4472   -1.9161    3.5696 H   0  0  0  0  0  0
   -2.4779   -0.8938    4.2381 H   0  0  0  0  0  0
  1  2  1  0  0  0
  2  3  2  0  0  0
  3  4  1  0  0  0
  4  5  2  0  0  0
  5  6  1  0  0  0
  1  6  2  0  0  0
  1  7  1  0  0  0
  2  8  1  0  0  0
  3  9  1  0  0  0
  4 10  1  0  0  0
  6 11  1  0  0  0
 12 13  1  0  0  0
 13 14  2  0  0  0
 14 15  1  0  0  0
 15 16  2  0  0  0
 16 17  1  0  0  0
 12 17  2  0  0  0
 12 18  1  0  0  0
 13 19  1  0  0  0
 14 20  1  0  0  0
 15 21  1  0  0  0
 17 22  1  0  0  0
M  END
$$$$
