


 22 22  0  0  1  0            999 V2000
   -0.6727   -1.1947    0.3667 C   0  0  0  0  0  0
   -1.3472    0.0031    0.1521 C   0  0  0  0  0  0
   -0.6646    1.1941    0.3790 C   0  0  0  0  0  0
    0.6589    1.1350    0.8089 C   0  0  0  0  0  0
    1.3228   -0.0104    1.0192 N   0  0  0  0  0  0
    0.6513   -1.1490    0.7968 C   0  0  0  0  0  0
   -1.1572   -2.1473    0.2065 H   0  0  0  0  0  0
   -2.3754    0.0084   -0.1823 H   0  0  0  0  0  0
   -1.1426    2.1516    0.2287 H   0  0  0  0  0  0
    1.2141    2.0459    0.9954 H   0  0  0  0  0  0
    1.2004   -2.0655    0.9737 H   0  0  0  0  0  0
    0.7524   -0.0153    5.0797 C   0  0  0  0  0  0
   -0.6037   -0.0167    4.7673 C   0  0  0  0  0  0
   -1.5218   -0.0110    5.8125 C   0  0  0  0  0  0
   -1.0462   -0.0040    7.1214 C   0  0  0  0  0  0
    0.2551   -0.0026    7.4410 N   0  0  0  0  0  0
    1.1258   -0.0082    6.4215 C   0  0  0  0  0  0
    1.4999   -0.0194    4.2986 H   0  0  0  0  0  0
   -0.9334   -0.0221    3.7370 H   0  0  0  0  0  0
   -2.5862   -0.0118    5.6237 H   0  0  0  0  0  0
   -1.7383    0.0006    7.9546 H   0  0  0  0  0  0
    2.1736   -0.0069    6.6959 H   0  0  0  0  0  0
  1  2  1  0  0  0
  2  3  2  0  0  0
  3  4  1  0  0  0
  4  5  2  0  0  0
  5  6  1  0  0  0
  1  6  2  0  0  0
  1  7  1  0  0  0
  2  8  1  0  0  0
  3  9  1  0  0  0
  4 10  1  0  0  0
  6 11  1  0  0  0
 12 13  1  0  0  0
 13 14  2  0  0  0
 14 15  1  0  0  0
 15 16  2  0  0  0
 16 17  1  0  0  0
 12 17  2  0  0  0
 12 18  1  0  0  0
 13 19  1  0  0  0
 14 20  1  0  0  0
 15 21  1  0  0  0
 17 22  1  0  0  0
M  END
$$$$
