


 22 22  0  0  1  0            999 V2000
   -2.0765   -1.3330    0.0393 C   0  0  0  0  0  0
   -3.3163   -0.7033    0.0176 C   0  0  0  0  0  0
   -3.3489    0.6870   -0.0071 C   0  0  0  0  0  0
   -2.1431    1.3826   -0.0089 C   0  0  0  0  0  0
   -0.9412    0.7900    0.0117 N   0  0  0  0  0  0
   -0.9228   -0.5524    0.0354 C   0  0  0  0  0  0
   -1.9965   -2.4106    0.0589 H   0  0  0  0  0  0
   -4.2316   -1.2791    0.0198 H   0  0  0  0  0  0
   -4.2854    1.2261   -0.0247 H   0  0  0  0  0  0
   -2.1381    2.4657   -0.0278 H   0  0  0  0  0  0
    0.0572   -1.0156    0.0514 H   0  0  0  0  0  0
    7.8210   -0.7718    0.0167 C   0  0  0  0  0  0
    7.7887    0.6185   -0.0110 C   0  0  0  0  0  0
    6.5490    1.2488   -0.0135 C   0  0  0  0  0  0
    5.3951    0.4688    0.0117 C   0  0  0  0  0  0
    5.4133   -0.8735    0.0386 N   0  0  0  0  0  0
    6.6150   -1.4667    0.0407 C   0  0  0  0  0  0
    8.7574   -1.3113    0.0198 H   0  0  0  0  0  0
    8.7040    1.1938   -0.0302 H   0  0  0  0  0  0
    6.4692    2.3264   -0.0346 H   0  0  0  0  0  0
    4.4152    0.9325    0.0100 H   0  0  0  0  0  0
    6.6098   -2.5497    0.0626 H   0  0  0  0  0  0
  1  2  1  0  0  0
  2  3  2  0  0  0
  3  4  1  0  0  0
  4  5  2  0  0  0
  5  6  1  0  0  0
  1  6  2  0  0  0
  1  7  1  0  0  0
  2  8  1  0  0  0
  3  9  1  0  0  0
  4 10  1  0  0  0
  6 11  1  0  0  0
 12 13  1  0  0  0
 13 14  2  0  0  0
 14 15  1  0  0  0
 15 16  2  0  0  0
 16 17  1  0  0  0
 12 17  2  0  0  0
 12 18  1  0  0  0
 13 19  1  0  0  0
 14 20  1  0  0  0
 15 21  1  0  0  0
 17 22  1  0  0  0
M  END
$$$$
