


 22 22  0  0  1  0            999 V2000
   -0.6727   -1.1947    0.3667 C   0  0  0  0  0  0
   -1.3472    0.0031    0.1521 C   0  0  0  0  0  0
   -0.6646    1.1941    0.3790 C   0  0  0  0  0  0
    0.6589    1.1350    0.8089 C   0  0  0  0  0  0
    1.3228   -0.0104    1.0192 N   0  0  0  0  0  0
    0.6513   -1.1490    0.7968 C   0  0  0  0  0  0
   -1.1572   -2.1473    0.2065 H   0  0  0  0  0  0
   -2.3754    0.0084   -0.1823 H   0  0  0  0  0  0
   -1.1426    2.1516    0.2287 H   0  0  0  0  0  0
    1.2141    2.0459    0.9954 H   0  0  0  0  0  0
    1.2004   -2.0655    0.9737 H   0  0  0  0  0  0
    0.8719   -0.0129    4.6751 C   0  0  0  0  0  0
   -0.4841   -0.0143    4.3627 C   0  0  0  0  0  0
   -1.4022   -0.0086    5.4079 C   0  0  0  0  0  0
   -0.9266   -0.0017    6.7169 C   0  0  0  0  0  0
    0.3747   -0.0002    7.0364 N   0  0  0  0  0  0
    1.2453   -0.0058    6.0170 C   0  0  0  0  0  0
    1.6194   -0.0170    3.8940 H   0  0  0  0  0  0
   -0.8138   -0.0198    3.3324 H   0  0  0  0  0  0
   -2.4667   -0.0094    5.2192 H   0  0  0  0  0  0
   -1.6188    0.0029    7.5500 H   0  0  0  0  0  0
    2.2932   -0.0046    6.2913 H   0  0  0  0  0  0
  1  2  1  0  0  0
  2  3  2  0  0  0
  3  4  1  0  0  0
  4  5  2  0  0  0
  5  6  1  0  0  0
  1  6  2  0  0  0
  1  7  1  0  0  0
  2  8  1  0  0  0
  3  9  1  0  0  0
  4 10  1  0  0  0
  6 11  1  0  0  0
 12 13  1  0  0  0
 13 14  2  0  0  0
 14 15  1  0  0  0
 15 16  2  0  0  0
 16 17  1  0  0  0
 12 17  2  0  0  0
 12 18  1  0  0  0
 13 19  1  0  0  0
 14 20  1  0  0  0
 15 21  1  0  0  0
 17 22  1  0  0  0
M  END
$$$$
