


 22 22  0  0  1  0            999 V2000
   -0.3982   -1.0288    0.2810 C   0  0  0  0  0  0
   -1.1958    0.1066    0.1954 C   0  0  0  0  0  0
   -0.5871    1.3174   -0.1201 C   0  0  0  0  0  0
    0.7886    1.3397   -0.3322 C   0  0  0  0  0  0
    1.5725    0.2546   -0.2565 N   0  0  0  0  0  0
    0.9694   -0.9032    0.0445 C   0  0  0  0  0  0
   -0.8184   -1.9917    0.5336 H   0  0  0  0  0  0
   -2.2607    0.0495    0.3734 H   0  0  0  0  0  0
   -1.1618    2.2295   -0.2005 H   0  0  0  0  0  0
    1.2884    2.2688   -0.5785 H   0  0  0  0  0  0
    1.6136   -1.7722    0.1023 H   0  0  0  0  0  0
   -1.1741    0.8214    3.4460 C   0  0  0  0  0  0
    0.1253    1.2106    3.1358 C   0  0  0  0  0  0
    1.1049    0.2277    3.0524 C   0  0  0  0  0  0
    0.7424   -1.0974    3.2856 C   0  0  0  0  0  0
   -0.5036   -1.4903    3.5816 N   0  0  0  0  0  0
   -1.4361   -0.5297    3.6554 C   0  0  0  0  0  0
   -1.9727    1.5459    3.5243 H   0  0  0  0  0  0
    0.3673    2.2496    2.9599 H   0  0  0  0  0  0
    2.1272    0.4744    2.8040 H   0  0  0  0  0  0
    1.4863   -1.8830    3.2292 H   0  0  0  0  0  0
   -2.4389   -0.8607    3.8976 H   0  0  0  0  0  0
  1  2  1  0  0  0
  2  3  2  0  0  0
  3  4  1  0  0  0
  4  5  2  0  0  0
  5  6  1  0  0  0
  1  6  2  0  0  0
  1  7  1  0  0  0
  2  8  1  0  0  0
  3  9  1  0  0  0
  4 10  1  0  0  0
  6 11  1  0  0  0
 12 13  1  0  0  0
 13 14  2  0  0  0
 14 15  1  0  0  0
 15 16  2  0  0  0
 16 17  1  0  0  0
 12 17  2  0  0  0
 12 18  1  0  0  0
 13 19  1  0  0  0
 14 20  1  0  0  0
 15 21  1  0  0  0
 17 22  1  0  0  0
M  END
$$$$
