


 22 22  0  0  1  0            999 V2000
   -0.3982   -1.0288    0.2810 C   0  0  0  0  0  0
   -1.1958    0.1066    0.1954 C   0  0  0  0  0  0
   -0.5871    1.3174   -0.1201 C   0  0  0  0  0  0
    0.7886    1.3397   -0.3322 C   0  0  0  0  0  0
    1.5725    0.2546   -0.2565 N   0  0  0  0  0  0
    0.9694   -0.9032    0.0445 C   0  0  0  0  0  0
   -0.8184   -1.9917    0.5336 H   0  0  0  0  0  0
   -2.2607    0.0495    0.3734 H   0  0  0  0  0  0
   -1.1618    2.2295   -0.2005 H   0  0  0  0  0  0
    1.2884    2.2688   -0.5785 H   0  0  0  0  0  0
    1.6136   -1.7722    0.1023 H   0  0  0  0  0  0
   -1.5936    0.4654    7.1077 C   0  0  0  0  0  0
   -0.2942    0.8547    6.7974 C   0  0  0  0  0  0
    0.6854   -0.1282    6.7141 C   0  0  0  0  0  0
    0.3229   -1.4534    6.9472 C   0  0  0  0  0  0
   -0.9231   -1.8463    7.2432 N   0  0  0  0  0  0
   -1.8556   -0.8856    7.3171 C   0  0  0  0  0  0
   -2.3922    1.1899    7.1860 H   0  0  0  0  0  0
   -0.0522    1.8937    6.6216 H   0  0  0  0  0  0
    1.7077    0.1185    6.4656 H   0  0  0  0  0  0
    1.0668   -2.2389    6.8908 H   0  0  0  0  0  0
   -2.8584   -1.2166    7.5593 H   0  0  0  0  0  0
  1  2  1  0  0  0
  2  3  2  0  0  0
  3  4  1  0  0  0
  4  5  2  0  0  0
  5  6  1  0  0  0
  1  6  2  0  0  0
  1  7  1  0  0  0
  2  8  1  0  0  0
  3  9  1  0  0  0
  4 10  1  0  0  0
  6 11  1  0  0  0
 12 13  1  0  0  0
 13 14  2  0  0  0
 14 15  1  0  0  0
 15 16  2  0  0  0
 16 17  1  0  0  0
 12 17  2  0  0  0
 12 18  1  0  0  0
 13 19  1  0  0  0
 14 20  1  0  0  0
 15 21  1  0  0  0
 17 22  1  0  0  0
M  END
$$$$
