


 22 22  0  0  1  0            999 V2000
   -0.3982   -1.0288    0.2810 C   0  0  0  0  0  0
   -1.1958    0.1066    0.1954 C   0  0  0  0  0  0
   -0.5871    1.3174   -0.1201 C   0  0  0  0  0  0
    0.7886    1.3397   -0.3322 C   0  0  0  0  0  0
    1.5725    0.2546   -0.2565 N   0  0  0  0  0  0
    0.9694   -0.9032    0.0445 C   0  0  0  0  0  0
   -0.8184   -1.9917    0.5336 H   0  0  0  0  0  0
   -2.2607    0.0495    0.3734 H   0  0  0  0  0  0
   -1.1618    2.2295   -0.2005 H   0  0  0  0  0  0
    1.2884    2.2688   -0.5785 H   0  0  0  0  0  0
    1.6136   -1.7722    0.1023 H   0  0  0  0  0  0
   -1.1544    0.8381    3.2742 C   0  0  0  0  0  0
    0.1450    1.2273    2.9639 C   0  0  0  0  0  0
    1.1246    0.2444    2.8806 C   0  0  0  0  0  0
    0.7621   -1.0807    3.1138 C   0  0  0  0  0  0
   -0.4840   -1.4736    3.4097 N   0  0  0  0  0  0
   -1.4164   -0.5130    3.4836 C   0  0  0  0  0  0
   -1.9530    1.5626    3.3525 H   0  0  0  0  0  0
    0.3870    2.2663    2.7881 H   0  0  0  0  0  0
    2.1469    0.4911    2.6321 H   0  0  0  0  0  0
    1.5059   -1.8663    3.0573 H   0  0  0  0  0  0
   -2.4192   -0.8440    3.7258 H   0  0  0  0  0  0
  1  2  1  0  0  0
  2  3  2  0  0  0
  3  4  1  0  0  0
  4  5  2  0  0  0
  5  6  1  0  0  0
  1  6  2  0  0  0
  1  7  1  0  0  0
  2  8  1  0  0  0
  3  9  1  0  0  0
  4 10  1  0  0  0
  6 11  1  0  0  0
 12 13  1  0  0  0
 13 14  2  0  0  0
 14 15  1  0  0  0
 15 16  2  0  0  0
 16 17  1  0  0  0
 12 17  2  0  0  0
 12 18  1  0  0  0
 13 19  1  0  0  0
 14 20  1  0  0  0
 15 21  1  0  0  0
 17 22  1  0  0  0
M  END
$$$$
