


 22 22  0  0  1  0            999 V2000
   -2.0765   -1.3330    0.0393 C   0  0  0  0  0  0
   -3.3163   -0.7033    0.0176 C   0  0  0  0  0  0
   -3.3489    0.6870   -0.0071 C   0  0  0  0  0  0
   -2.1431    1.3826   -0.0089 C   0  0  0  0  0  0
   -0.9412    0.7900    0.0117 N   0  0  0  0  0  0
   -0.9228   -0.5524    0.0354 C   0  0  0  0  0  0
   -1.9965   -2.4106    0.0589 H   0  0  0  0  0  0
   -4.2316   -1.2791    0.0198 H   0  0  0  0  0  0
   -4.2854    1.2261   -0.0247 H   0  0  0  0  0  0
   -2.1381    2.4657   -0.0278 H   0  0  0  0  0  0
    0.0572   -1.0156    0.0514 H   0  0  0  0  0  0
    4.6124   -0.8570    0.0210 C   0  0  0  0  0  0
    4.5801    0.5333   -0.0067 C   0  0  0  0  0  0
    3.3404    1.1636   -0.0092 C   0  0  0  0  0  0
    2.1865    0.3836    0.0160 C   0  0  0  0  0  0
    2.2047   -0.9588    0.0430 N   0  0  0  0  0  0
    3.4065   -1.5519    0.0450 C   0  0  0  0  0  0
    5.5488   -1.3965    0.0241 H   0  0  0  0  0  0
    5.4955    1.1086   -0.0259 H   0  0  0  0  0  0
    3.2606    2.2412   -0.0303 H   0  0  0  0  0  0
    1.2066    0.8473    0.0143 H   0  0  0  0  0  0
    3.4012   -2.6349    0.0669 H   0  0  0  0  0  0
  1  2  1  0  0  0
  2  3  2  0  0  0
  3  4  1  0  0  0
  4  5  2  0  0  0
  5  6  1  0  0  0
  1  6  2  0  0  0
  1  7  1  0  0  0
  2  8  1  0  0  0
  3  9  1  0  0  0
  4 10  1  0  0  0
  6 11  1  0  0  0
 12 13  1  0  0  0
 13 14  2  0  0  0
 14 15  1  0  0  0
 15 16  2  0  0  0
 16 17  1  0  0  0
 12 17  2  0  0  0
 12 18  1  0  0  0
 13 19  1  0  0  0
 14 20  1  0  0  0
 15 21  1  0  0  0
 17 22  1  0  0  0
M  END
$$$$
