


 27 27  0  0  1  0            999 V2000
    1.0623   -0.8665    4.5786 C   0  0  0  0  0  0
    1.1166    0.5994    5.0115 C   0  0  0  0  0  0
   -0.0508    1.2122    4.2407 C   0  0  0  0  0  0
   -1.1677    0.1747    4.4118 C   0  0  0  0  0  0
   -0.4447   -1.1919    4.5154 C   0  0  0  0  0  0
    1.5161   -0.9586    3.5906 H   0  0  0  0  0  0
    1.6068   -1.5305    5.2478 H   0  0  0  0  0  0
    2.0749    1.0723    4.8008 H   0  0  0  0  0  0
    0.9285    0.6811    6.0847 H   0  0  0  0  0  0
    0.2235    1.3010    3.1873 H   0  0  0  0  0  0
   -0.3352    2.2034    4.5924 H   0  0  0  0  0  0
   -1.8933    0.1983    3.6004 H   0  0  0  0  0  0
   -1.7118    0.3794    5.3340 H   0  0  0  0  0  0
   -0.6873   -1.8360    3.6721 H   0  0  0  0  0  0
   -0.7598   -1.7193    5.4145 H   0  0  0  0  0  0
   -1.9936   -1.4563    0.9669 O   0  0  0  0  0  0
   -1.1790   -0.5737    0.7595 C   0  0  0  0  0  0
   -1.4767    0.8112    0.4376 C   0  0  0  0  0  0
   -0.4681    1.6830    0.2349 C   0  0  0  0  0  0
    0.8456    1.3060    0.3268 N   0  0  0  0  0  0
    1.5897    1.9689    0.1860 H   0  0  0  0  0  0
    1.2543    0.0195    0.6362 C   0  0  0  0  0  0
    2.4223   -0.3017    0.7319 O   0  0  0  0  0  0
    0.1957   -0.8447    0.8238 N   0  0  0  0  0  0
    0.4504   -1.7967    1.0498 H   0  0  0  0  0  0
   -2.5064    1.1157    0.3639 H   0  0  0  0  0  0
   -0.6384    2.7216   -0.0062 H   0  0  0  0  0  0
  1  2  1  0  0  0
  2  3  1  0  0  0
  3  4  1  0  0  0
  4  5  1  0  0  0
  1  5  1  0  0  0
  1  6  1  0  0  0
  1  7  1  0  0  0
  2  8  1  0  0  0
  2  9  1  0  0  0
  3 10  1  0  0  0
  3 11  1  0  0  0
  4 12  1  0  0  0
  4 13  1  0  0  0
  5 14  1  0  0  0
  5 15  1  0  0  0
 16 17  2  0  0  0
 17 18  1  0  0  0
 18 19  2  0  0  0
 19 20  1  0  0  0
 20 21  1  0  0  0
 20 22  1  0  0  0
 22 23  2  0  0  0
 22 24  1  0  0  0
 24 25  1  0  0  0
 17 24  1  0  0  0
 18 26  1  0  0  0
 19 27  1  0  0  0
M  END
$$$$
