


 27 27  0  0  1  0            999 V2000
    1.0529   -0.8614    4.2742 C   0  0  0  0  0  0
    1.1072    0.6045    4.7071 C   0  0  0  0  0  0
   -0.0602    1.2174    3.9364 C   0  0  0  0  0  0
   -1.1771    0.1798    4.1074 C   0  0  0  0  0  0
   -0.4541   -1.1868    4.2111 C   0  0  0  0  0  0
    1.5067   -0.9535    3.2862 H   0  0  0  0  0  0
    1.5974   -1.5254    4.9434 H   0  0  0  0  0  0
    2.0655    1.0774    4.4964 H   0  0  0  0  0  0
    0.9191    0.6862    5.7804 H   0  0  0  0  0  0
    0.2141    1.3061    2.8829 H   0  0  0  0  0  0
   -0.3446    2.2085    4.2880 H   0  0  0  0  0  0
   -1.9026    0.2034    3.2960 H   0  0  0  0  0  0
   -1.7212    0.3845    5.0296 H   0  0  0  0  0  0
   -0.6967   -1.8309    3.3677 H   0  0  0  0  0  0
   -0.7692   -1.7142    5.1101 H   0  0  0  0  0  0
   -1.9936   -1.4563    0.9669 O   0  0  0  0  0  0
   -1.1790   -0.5737    0.7595 C   0  0  0  0  0  0
   -1.4767    0.8112    0.4376 C   0  0  0  0  0  0
   -0.4681    1.6830    0.2349 C   0  0  0  0  0  0
    0.8456    1.3060    0.3268 N   0  0  0  0  0  0
    1.5897    1.9689    0.1860 H   0  0  0  0  0  0
    1.2543    0.0195    0.6362 C   0  0  0  0  0  0
    2.4223   -0.3017    0.7319 O   0  0  0  0  0  0
    0.1957   -0.8447    0.8238 N   0  0  0  0  0  0
    0.4504   -1.7967    1.0498 H   0  0  0  0  0  0
   -2.5064    1.1157    0.3639 H   0  0  0  0  0  0
   -0.6384    2.7216   -0.0062 H   0  0  0  0  0  0
  1  2  1  0  0  0
  2  3  1  0  0  0
  3  4  1  0  0  0
  4  5  1  0  0  0
  1  5  1  0  0  0
  1  6  1  0  0  0
  1  7  1  0  0  0
  2  8  1  0  0  0
  2  9  1  0  0  0
  3 10  1  0  0  0
  3 11  1  0  0  0
  4 12  1  0  0  0
  4 13  1  0  0  0
  5 14  1  0  0  0
  5 15  1  0  0  0
 16 17  2  0  0  0
 17 18  1  0  0  0
 18 19  2  0  0  0
 19 20  1  0  0  0
 20 21  1  0  0  0
 20 22  1  0  0  0
 22 23  2  0  0  0
 22 24  1  0  0  0
 24 25  1  0  0  0
 17 24  1  0  0  0
 18 26  1  0  0  0
 19 27  1  0  0  0
M  END
$$$$
