


 27 27  0  0  1  0            999 V2000
    1.0805   -0.8765    5.1697 C   0  0  0  0  0  0
    1.1348    0.5895    5.6027 C   0  0  0  0  0  0
   -0.0326    1.2023    4.8319 C   0  0  0  0  0  0
   -1.1495    0.1647    5.0029 C   0  0  0  0  0  0
   -0.4265   -1.2018    5.1066 C   0  0  0  0  0  0
    1.5343   -0.9685    4.1817 H   0  0  0  0  0  0
    1.6250   -1.5404    5.8389 H   0  0  0  0  0  0
    2.0931    1.0624    5.3919 H   0  0  0  0  0  0
    0.9467    0.6711    6.6759 H   0  0  0  0  0  0
    0.2418    1.2911    3.7784 H   0  0  0  0  0  0
   -0.3170    2.1934    5.1835 H   0  0  0  0  0  0
   -1.8750    0.1884    4.1915 H   0  0  0  0  0  0
   -1.6936    0.3694    5.9252 H   0  0  0  0  0  0
   -0.6691   -1.8460    4.2632 H   0  0  0  0  0  0
   -0.7416   -1.7292    6.0057 H   0  0  0  0  0  0
   -1.9936   -1.4563    0.9669 O   0  0  0  0  0  0
   -1.1790   -0.5737    0.7595 C   0  0  0  0  0  0
   -1.4767    0.8112    0.4376 C   0  0  0  0  0  0
   -0.4681    1.6830    0.2349 C   0  0  0  0  0  0
    0.8456    1.3060    0.3268 N   0  0  0  0  0  0
    1.5897    1.9689    0.1860 H   0  0  0  0  0  0
    1.2543    0.0195    0.6362 C   0  0  0  0  0  0
    2.4223   -0.3017    0.7319 O   0  0  0  0  0  0
    0.1957   -0.8447    0.8238 N   0  0  0  0  0  0
    0.4504   -1.7967    1.0498 H   0  0  0  0  0  0
   -2.5064    1.1157    0.3639 H   0  0  0  0  0  0
   -0.6384    2.7216   -0.0062 H   0  0  0  0  0  0
  1  2  1  0  0  0
  2  3  1  0  0  0
  3  4  1  0  0  0
  4  5  1  0  0  0
  1  5  1  0  0  0
  1  6  1  0  0  0
  1  7  1  0  0  0
  2  8  1  0  0  0
  2  9  1  0  0  0
  3 10  1  0  0  0
  3 11  1  0  0  0
  4 12  1  0  0  0
  4 13  1  0  0  0
  5 14  1  0  0  0
  5 15  1  0  0  0
 16 17  2  0  0  0
 17 18  1  0  0  0
 18 19  2  0  0  0
 19 20  1  0  0  0
 20 21  1  0  0  0
 20 22  1  0  0  0
 22 23  2  0  0  0
 22 24  1  0  0  0
 24 25  1  0  0  0
 17 24  1  0  0  0
 18 26  1  0  0  0
 19 27  1  0  0  0
M  END
$$$$
