


 27 27  0  0  1  0            999 V2000
    1.0669   -0.8690    4.7282 C   0  0  0  0  0  0
    1.1212    0.5969    5.1611 C   0  0  0  0  0  0
   -0.0462    1.2097    4.3903 C   0  0  0  0  0  0
   -1.1631    0.1722    4.5614 C   0  0  0  0  0  0
   -0.4401   -1.1944    4.6650 C   0  0  0  0  0  0
    1.5207   -0.9611    3.7402 H   0  0  0  0  0  0
    1.6114   -1.5330    5.3974 H   0  0  0  0  0  0
    2.0795    1.0698    4.9504 H   0  0  0  0  0  0
    0.9331    0.6786    6.2343 H   0  0  0  0  0  0
    0.2281    1.2985    3.3369 H   0  0  0  0  0  0
   -0.3306    2.2009    4.7420 H   0  0  0  0  0  0
   -1.8886    0.1958    3.7500 H   0  0  0  0  0  0
   -1.7072    0.3769    5.4836 H   0  0  0  0  0  0
   -0.6827   -1.8385    3.8217 H   0  0  0  0  0  0
   -0.7552   -1.7218    5.5641 H   0  0  0  0  0  0
   -1.9936   -1.4563    0.9669 O   0  0  0  0  0  0
   -1.1790   -0.5737    0.7595 C   0  0  0  0  0  0
   -1.4767    0.8112    0.4376 C   0  0  0  0  0  0
   -0.4681    1.6830    0.2349 C   0  0  0  0  0  0
    0.8456    1.3060    0.3268 N   0  0  0  0  0  0
    1.5897    1.9689    0.1860 H   0  0  0  0  0  0
    1.2543    0.0195    0.6362 C   0  0  0  0  0  0
    2.4223   -0.3017    0.7319 O   0  0  0  0  0  0
    0.1957   -0.8447    0.8238 N   0  0  0  0  0  0
    0.4504   -1.7967    1.0498 H   0  0  0  0  0  0
   -2.5064    1.1157    0.3639 H   0  0  0  0  0  0
   -0.6384    2.7216   -0.0062 H   0  0  0  0  0  0
  1  2  1  0  0  0
  2  3  1  0  0  0
  3  4  1  0  0  0
  4  5  1  0  0  0
  1  5  1  0  0  0
  1  6  1  0  0  0
  1  7  1  0  0  0
  2  8  1  0  0  0
  2  9  1  0  0  0
  3 10  1  0  0  0
  3 11  1  0  0  0
  4 12  1  0  0  0
  4 13  1  0  0  0
  5 14  1  0  0  0
  5 15  1  0  0  0
 16 17  2  0  0  0
 17 18  1  0  0  0
 18 19  2  0  0  0
 19 20  1  0  0  0
 20 21  1  0  0  0
 20 22  1  0  0  0
 22 23  2  0  0  0
 22 24  1  0  0  0
 24 25  1  0  0  0
 17 24  1  0  0  0
 18 26  1  0  0  0
 19 27  1  0  0  0
M  END
$$$$
