


 27 27  0  0  1  0            999 V2000
    1.0481   -0.8588    4.1188 C   0  0  0  0  0  0
    1.1024    0.6071    4.5517 C   0  0  0  0  0  0
   -0.0649    1.2200    3.7809 C   0  0  0  0  0  0
   -1.1819    0.1824    3.9519 C   0  0  0  0  0  0
   -0.4588   -1.1842    4.0556 C   0  0  0  0  0  0
    1.5020   -0.9509    3.1308 H   0  0  0  0  0  0
    1.5926   -1.5228    4.7880 H   0  0  0  0  0  0
    2.0607    1.0800    4.3410 H   0  0  0  0  0  0
    0.9143    0.6888    5.6249 H   0  0  0  0  0  0
    0.2094    1.3087    2.7274 H   0  0  0  0  0  0
   -0.3494    2.2111    4.1325 H   0  0  0  0  0  0
   -1.9074    0.2060    3.1406 H   0  0  0  0  0  0
   -1.7260    0.3871    4.8742 H   0  0  0  0  0  0
   -0.7015   -1.8283    3.2122 H   0  0  0  0  0  0
   -0.7740   -1.7116    4.9547 H   0  0  0  0  0  0
   -1.9936   -1.4563    0.9669 O   0  0  0  0  0  0
   -1.1790   -0.5737    0.7595 C   0  0  0  0  0  0
   -1.4767    0.8112    0.4376 C   0  0  0  0  0  0
   -0.4681    1.6830    0.2349 C   0  0  0  0  0  0
    0.8456    1.3060    0.3268 N   0  0  0  0  0  0
    1.5897    1.9689    0.1860 H   0  0  0  0  0  0
    1.2543    0.0195    0.6362 C   0  0  0  0  0  0
    2.4223   -0.3017    0.7319 O   0  0  0  0  0  0
    0.1957   -0.8447    0.8238 N   0  0  0  0  0  0
    0.4504   -1.7967    1.0498 H   0  0  0  0  0  0
   -2.5064    1.1157    0.3639 H   0  0  0  0  0  0
   -0.6384    2.7216   -0.0062 H   0  0  0  0  0  0
  1  2  1  0  0  0
  2  3  1  0  0  0
  3  4  1  0  0  0
  4  5  1  0  0  0
  1  5  1  0  0  0
  1  6  1  0  0  0
  1  7  1  0  0  0
  2  8  1  0  0  0
  2  9  1  0  0  0
  3 10  1  0  0  0
  3 11  1  0  0  0
  4 12  1  0  0  0
  4 13  1  0  0  0
  5 14  1  0  0  0
  5 15  1  0  0  0
 16 17  2  0  0  0
 17 18  1  0  0  0
 18 19  2  0  0  0
 19 20  1  0  0  0
 20 21  1  0  0  0
 20 22  1  0  0  0
 22 23  2  0  0  0
 22 24  1  0  0  0
 24 25  1  0  0  0
 17 24  1  0  0  0
 18 26  1  0  0  0
 19 27  1  0  0  0
M  END
$$$$
