


 27 27  0  0  1  0            999 V2000
    1.1462   -0.9122    7.3008 C   0  0  0  0  0  0
    1.2005    0.5537    7.7337 C   0  0  0  0  0  0
    0.0331    1.1665    6.9630 C   0  0  0  0  0  0
   -1.0838    0.1289    7.1340 C   0  0  0  0  0  0
   -0.3608   -1.2376    7.2376 C   0  0  0  0  0  0
    1.6000   -1.0043    6.3128 H   0  0  0  0  0  0
    1.6907   -1.5762    7.9700 H   0  0  0  0  0  0
    2.1588    1.0266    7.5230 H   0  0  0  0  0  0
    1.0124    0.6353    8.8070 H   0  0  0  0  0  0
    0.3074    1.2553    5.9095 H   0  0  0  0  0  0
   -0.2513    2.1577    7.3146 H   0  0  0  0  0  0
   -1.8094    0.1526    6.3226 H   0  0  0  0  0  0
   -1.6279    0.3336    8.0562 H   0  0  0  0  0  0
   -0.6035   -1.8817    6.3943 H   0  0  0  0  0  0
   -0.6759   -1.7650    8.1367 H   0  0  0  0  0  0
   -1.9936   -1.4563    0.9669 O   0  0  0  0  0  0
   -1.1790   -0.5737    0.7595 C   0  0  0  0  0  0
   -1.4767    0.8112    0.4376 C   0  0  0  0  0  0
   -0.4681    1.6830    0.2349 C   0  0  0  0  0  0
    0.8456    1.3060    0.3268 N   0  0  0  0  0  0
    1.5897    1.9689    0.1860 H   0  0  0  0  0  0
    1.2543    0.0195    0.6362 C   0  0  0  0  0  0
    2.4223   -0.3017    0.7319 O   0  0  0  0  0  0
    0.1957   -0.8447    0.8238 N   0  0  0  0  0  0
    0.4504   -1.7967    1.0498 H   0  0  0  0  0  0
   -2.5064    1.1157    0.3639 H   0  0  0  0  0  0
   -0.6384    2.7216   -0.0062 H   0  0  0  0  0  0
  1  2  1  0  0  0
  2  3  1  0  0  0
  3  4  1  0  0  0
  4  5  1  0  0  0
  1  5  1  0  0  0
  1  6  1  0  0  0
  1  7  1  0  0  0
  2  8  1  0  0  0
  2  9  1  0  0  0
  3 10  1  0  0  0
  3 11  1  0  0  0
  4 12  1  0  0  0
  4 13  1  0  0  0
  5 14  1  0  0  0
  5 15  1  0  0  0
 16 17  2  0  0  0
 17 18  1  0  0  0
 18 19  2  0  0  0
 19 20  1  0  0  0
 20 21  1  0  0  0
 20 22  1  0  0  0
 22 23  2  0  0  0
 22 24  1  0  0  0
 24 25  1  0  0  0
 17 24  1  0  0  0
 18 26  1  0  0  0
 19 27  1  0  0  0
M  END
$$$$
