


 27 27  0  0  1  0            999 V2000
    1.1027   -0.8885    5.8895 C   0  0  0  0  0  0
    1.1570    0.5774    6.3224 C   0  0  0  0  0  0
   -0.0104    1.1902    5.5516 C   0  0  0  0  0  0
   -1.1273    0.1526    5.7227 C   0  0  0  0  0  0
   -0.4043   -1.2139    5.8263 C   0  0  0  0  0  0
    1.5565   -0.9806    4.9015 H   0  0  0  0  0  0
    1.6472   -1.5525    6.5587 H   0  0  0  0  0  0
    2.1153    1.0503    6.1117 H   0  0  0  0  0  0
    0.9689    0.6590    7.3956 H   0  0  0  0  0  0
    0.2639    1.2790    4.4982 H   0  0  0  0  0  0
   -0.2948    2.1814    5.9033 H   0  0  0  0  0  0
   -1.8529    0.1763    4.9113 H   0  0  0  0  0  0
   -1.6714    0.3573    6.6449 H   0  0  0  0  0  0
   -0.6470   -1.8580    4.9830 H   0  0  0  0  0  0
   -0.7194   -1.7413    6.7254 H   0  0  0  0  0  0
   -1.9936   -1.4563    0.9669 O   0  0  0  0  0  0
   -1.1790   -0.5737    0.7595 C   0  0  0  0  0  0
   -1.4767    0.8112    0.4376 C   0  0  0  0  0  0
   -0.4681    1.6830    0.2349 C   0  0  0  0  0  0
    0.8456    1.3060    0.3268 N   0  0  0  0  0  0
    1.5897    1.9689    0.1860 H   0  0  0  0  0  0
    1.2543    0.0195    0.6362 C   0  0  0  0  0  0
    2.4223   -0.3017    0.7319 O   0  0  0  0  0  0
    0.1957   -0.8447    0.8238 N   0  0  0  0  0  0
    0.4504   -1.7967    1.0498 H   0  0  0  0  0  0
   -2.5064    1.1157    0.3639 H   0  0  0  0  0  0
   -0.6384    2.7216   -0.0062 H   0  0  0  0  0  0
  1  2  1  0  0  0
  2  3  1  0  0  0
  3  4  1  0  0  0
  4  5  1  0  0  0
  1  5  1  0  0  0
  1  6  1  0  0  0
  1  7  1  0  0  0
  2  8  1  0  0  0
  2  9  1  0  0  0
  3 10  1  0  0  0
  3 11  1  0  0  0
  4 12  1  0  0  0
  4 13  1  0  0  0
  5 14  1  0  0  0
  5 15  1  0  0  0
 16 17  2  0  0  0
 17 18  1  0  0  0
 18 19  2  0  0  0
 19 20  1  0  0  0
 20 21  1  0  0  0
 20 22  1  0  0  0
 22 23  2  0  0  0
 22 24  1  0  0  0
 24 25  1  0  0  0
 17 24  1  0  0  0
 18 26  1  0  0  0
 19 27  1  0  0  0
M  END
$$$$
