


 27 27  0  0  1  0            999 V2000
    1.0576   -0.8640    4.4272 C   0  0  0  0  0  0
    1.1119    0.6020    4.8602 C   0  0  0  0  0  0
   -0.0554    1.2148    4.0894 C   0  0  0  0  0  0
   -1.1724    0.1772    4.2604 C   0  0  0  0  0  0
   -0.4493   -1.1893    4.3641 C   0  0  0  0  0  0
    1.5115   -0.9560    3.4392 H   0  0  0  0  0  0
    1.6021   -1.5280    5.0964 H   0  0  0  0  0  0
    2.0702    1.0749    4.6494 H   0  0  0  0  0  0
    0.9238    0.6836    5.9334 H   0  0  0  0  0  0
    0.2189    1.3036    3.0359 H   0  0  0  0  0  0
   -0.3399    2.2059    4.4410 H   0  0  0  0  0  0
   -1.8979    0.2008    3.4490 H   0  0  0  0  0  0
   -1.7165    0.3819    5.1827 H   0  0  0  0  0  0
   -0.6920   -1.8335    3.5207 H   0  0  0  0  0  0
   -0.7645   -1.7167    5.2632 H   0  0  0  0  0  0
   -1.9936   -1.4563    0.9669 O   0  0  0  0  0  0
   -1.1790   -0.5737    0.7595 C   0  0  0  0  0  0
   -1.4767    0.8112    0.4376 C   0  0  0  0  0  0
   -0.4681    1.6830    0.2349 C   0  0  0  0  0  0
    0.8456    1.3060    0.3268 N   0  0  0  0  0  0
    1.5897    1.9689    0.1860 H   0  0  0  0  0  0
    1.2543    0.0195    0.6362 C   0  0  0  0  0  0
    2.4223   -0.3017    0.7319 O   0  0  0  0  0  0
    0.1957   -0.8447    0.8238 N   0  0  0  0  0  0
    0.4504   -1.7967    1.0498 H   0  0  0  0  0  0
   -2.5064    1.1157    0.3639 H   0  0  0  0  0  0
   -0.6384    2.7216   -0.0062 H   0  0  0  0  0  0
  1  2  1  0  0  0
  2  3  1  0  0  0
  3  4  1  0  0  0
  4  5  1  0  0  0
  1  5  1  0  0  0
  1  6  1  0  0  0
  1  7  1  0  0  0
  2  8  1  0  0  0
  2  9  1  0  0  0
  3 10  1  0  0  0
  3 11  1  0  0  0
  4 12  1  0  0  0
  4 13  1  0  0  0
  5 14  1  0  0  0
  5 15  1  0  0  0
 16 17  2  0  0  0
 17 18  1  0  0  0
 18 19  2  0  0  0
 19 20  1  0  0  0
 20 21  1  0  0  0
 20 22  1  0  0  0
 22 23  2  0  0  0
 22 24  1  0  0  0
 24 25  1  0  0  0
 17 24  1  0  0  0
 18 26  1  0  0  0
 19 27  1  0  0  0
M  END
$$$$
