


 20 19  0  0  1  0            999 V2000
   -0.6207    0.7984    3.8618 C   0  0  0  0  0  0
    0.4012   -0.2455    4.1824 C   0  0  0  0  0  0
    1.5967   -0.0816    4.2590 O   0  0  0  0  0  0
   -0.1783   -1.4569    4.3819 O   0  0  0  0  0  0
   -0.1424    1.7694    3.8149 H   0  0  0  0  0  0
   -1.0735    0.5652    2.8991 H   0  0  0  0  0  0
   -1.4056    0.7929    4.6143 H   0  0  0  0  0  0
    0.5561   -2.0580    4.5749 H   0  0  0  0  0  0
    0.6068    1.3304    0.3164 C   0  0  0  0  0  0
    1.1181    0.0873    0.6851 C   0  0  0  0  0  0
    0.2929   -1.0361    0.6691 C   0  0  0  0  0  0
   -1.0428   -0.9167    0.2882 C   0  0  0  0  0  0
   -1.5536    0.3273   -0.0799 C   0  0  0  0  0  0
   -0.7280    1.4508   -0.0668 C   0  0  0  0  0  0
    1.2465    2.2023    0.3304 H   0  0  0  0  0  0
    2.1501   -0.0039    0.9938 H   0  0  0  0  0  0
    0.6885   -2.0010    0.9554 H   0  0  0  0  0  0
   -1.6827   -1.7885    0.2794 H   0  0  0  0  0  0
   -2.5892    0.4203   -0.3774 H   0  0  0  0  0  0
   -1.1236    2.4157   -0.3539 H   0  0  0  0  0  0
  1  2  1  0  0  0
  2  3  2  0  0  0
  2  4  1  0  0  0
  1  5  1  0  0  0
  1  6  1  0  0  0
  1  7  1  0  0  0
  4  8  1  0  0  0
  9 10  1  0  0  0
 10 11  2  0  0  0
 11 12  1  0  0  0
 12 13  2  0  0  0
 13 14  1  0  0  0
  9 14  2  0  0  0
  9 15  1  0  0  0
 10 16  1  0  0  0
 11 17  1  0  0  0
 12 18  1  0  0  0
 13 19  1  0  0  0
 14 20  1  0  0  0
M  END
$$$$
