


 20 19  0  0  1  0            999 V2000
    0.1110    0.0954    6.0738 C   0  0  0  0  0  0
   -0.0990    0.4924    4.6424 C   0  0  0  0  0  0
   -0.5672    1.5418    4.2632 O   0  0  0  0  0  0
    0.3042   -0.4852    3.8031 O   0  0  0  0  0  0
   -0.1990    0.9047    6.7238 H   0  0  0  0  0  0
   -0.4651   -0.8012    6.2908 H   0  0  0  0  0  0
    1.1595   -0.1408    6.2389 H   0  0  0  0  0  0
    0.1355   -0.1593    2.9017 H   0  0  0  0  0  0
    0.9641    0.8751    0.3780 C   0  0  0  0  0  0
    1.4311   -0.4131    0.1190 C   0  0  0  0  0  0
    0.5341   -1.4776    0.0424 C   0  0  0  0  0  0
   -0.8303   -1.2536    0.2209 C   0  0  0  0  0  0
   -1.2976    0.0344    0.4802 C   0  0  0  0  0  0
   -0.4004    1.0998    0.5616 C   0  0  0  0  0  0
    1.6598    1.6999    0.4460 H   0  0  0  0  0  0
    2.4895   -0.5872   -0.0170 H   0  0  0  0  0  0
    0.8970   -2.4774   -0.1520 H   0  0  0  0  0  0
   -1.5258   -2.0796    0.1641 H   0  0  0  0  0  0
   -2.3544    0.2080    0.6286 H   0  0  0  0  0  0
   -0.7605    2.0938    0.7848 H   0  0  0  0  0  0
  1  2  1  0  0  0
  2  3  2  0  0  0
  2  4  1  0  0  0
  1  5  1  0  0  0
  1  6  1  0  0  0
  1  7  1  0  0  0
  4  8  1  0  0  0
  9 10  1  0  0  0
 10 11  2  0  0  0
 11 12  1  0  0  0
 12 13  2  0  0  0
 13 14  1  0  0  0
  9 14  2  0  0  0
  9 15  1  0  0  0
 10 16  1  0  0  0
 11 17  1  0  0  0
 12 18  1  0  0  0
 13 19  1  0  0  0
 14 20  1  0  0  0
M  END
$$$$
