


 20 19  0  0  1  0            999 V2000
    0.0719    0.1741    5.5446 C   0  0  0  0  0  0
   -0.1381    0.5711    4.1132 C   0  0  0  0  0  0
   -0.6063    1.6206    3.7340 O   0  0  0  0  0  0
    0.2651   -0.4064    3.2740 O   0  0  0  0  0  0
   -0.2381    0.9835    6.1946 H   0  0  0  0  0  0
   -0.5042   -0.7225    5.7616 H   0  0  0  0  0  0
    1.1204   -0.0620    5.7097 H   0  0  0  0  0  0
    0.0964   -0.0805    2.3725 H   0  0  0  0  0  0
    0.9641    0.8751    0.3780 C   0  0  0  0  0  0
    1.4311   -0.4131    0.1190 C   0  0  0  0  0  0
    0.5341   -1.4776    0.0424 C   0  0  0  0  0  0
   -0.8303   -1.2536    0.2209 C   0  0  0  0  0  0
   -1.2976    0.0344    0.4802 C   0  0  0  0  0  0
   -0.4004    1.0998    0.5616 C   0  0  0  0  0  0
    1.6598    1.6999    0.4460 H   0  0  0  0  0  0
    2.4895   -0.5872   -0.0170 H   0  0  0  0  0  0
    0.8970   -2.4774   -0.1520 H   0  0  0  0  0  0
   -1.5258   -2.0796    0.1641 H   0  0  0  0  0  0
   -2.3544    0.2080    0.6286 H   0  0  0  0  0  0
   -0.7605    2.0938    0.7848 H   0  0  0  0  0  0
  1  2  1  0  0  0
  2  3  2  0  0  0
  2  4  1  0  0  0
  1  5  1  0  0  0
  1  6  1  0  0  0
  1  7  1  0  0  0
  4  8  1  0  0  0
  9 10  1  0  0  0
 10 11  2  0  0  0
 11 12  1  0  0  0
 12 13  2  0  0  0
 13 14  1  0  0  0
  9 14  2  0  0  0
  9 15  1  0  0  0
 10 16  1  0  0  0
 11 17  1  0  0  0
 12 18  1  0  0  0
 13 19  1  0  0  0
 14 20  1  0  0  0
M  END
$$$$
