


 20 19  0  0  1  0            999 V2000
   -0.9416    1.2692    6.6965 C   0  0  0  0  0  0
    0.0803    0.2253    7.0172 C   0  0  0  0  0  0
    1.2758    0.3893    7.0937 O   0  0  0  0  0  0
   -0.4992   -0.9861    7.2166 O   0  0  0  0  0  0
   -0.4633    2.2402    6.6497 H   0  0  0  0  0  0
   -1.3944    1.0360    5.7338 H   0  0  0  0  0  0
   -1.7264    1.2637    7.4490 H   0  0  0  0  0  0
    0.2353   -1.5872    7.4096 H   0  0  0  0  0  0
    0.6068    1.3304    0.3164 C   0  0  0  0  0  0
    1.1181    0.0873    0.6851 C   0  0  0  0  0  0
    0.2929   -1.0361    0.6691 C   0  0  0  0  0  0
   -1.0428   -0.9167    0.2882 C   0  0  0  0  0  0
   -1.5536    0.3273   -0.0799 C   0  0  0  0  0  0
   -0.7280    1.4508   -0.0668 C   0  0  0  0  0  0
    1.2465    2.2023    0.3304 H   0  0  0  0  0  0
    2.1501   -0.0039    0.9938 H   0  0  0  0  0  0
    0.6885   -2.0010    0.9554 H   0  0  0  0  0  0
   -1.6827   -1.7885    0.2794 H   0  0  0  0  0  0
   -2.5892    0.4203   -0.3774 H   0  0  0  0  0  0
   -1.1236    2.4157   -0.3539 H   0  0  0  0  0  0
  1  2  1  0  0  0
  2  3  2  0  0  0
  2  4  1  0  0  0
  1  5  1  0  0  0
  1  6  1  0  0  0
  1  7  1  0  0  0
  4  8  1  0  0  0
  9 10  1  0  0  0
 10 11  2  0  0  0
 11 12  1  0  0  0
 12 13  2  0  0  0
 13 14  1  0  0  0
  9 14  2  0  0  0
  9 15  1  0  0  0
 10 16  1  0  0  0
 11 17  1  0  0  0
 12 18  1  0  0  0
 13 19  1  0  0  0
 14 20  1  0  0  0
M  END
$$$$
