


 23 21  0  0  1  0            999 V2000
    0.6664    0.1838    0.4197 C   0  0  0  0  0  0
   -0.6660    0.1830    0.4196 C   0  0  0  0  0  0
    1.2289   -0.3299    1.1863 H   0  0  0  0  0  0
    1.2280    0.6972   -0.3476 H   0  0  0  0  0  0
   -1.2279   -0.3315    1.1861 H   0  0  0  0  0  0
   -1.2282    0.6956   -0.3478 H   0  0  0  0  0  0
   -2.5328   -0.4076    4.3604 C   0  0  0  0  0  0
   -1.2713    0.4450    4.3963 C   0  0  0  0  0  0
   -0.0001   -0.3925    4.3693 C   0  0  0  0  0  0
    1.2712    0.4451    4.3967 C   0  0  0  0  0  0
    2.5326   -0.4077    4.3609 C   0  0  0  0  0  0
   -2.5623   -1.0207    3.4593 H   0  0  0  0  0  0
   -2.5689   -1.0819    5.2161 H   0  0  0  0  0  0
   -3.4339    0.2034    4.3777 H   0  0  0  0  0  0
   -1.2717    1.0651    5.2957 H   0  0  0  0  0  0
   -1.2629    1.1319    3.5472 H   0  0  0  0  0  0
   -0.0002   -1.0792    5.2212 H   0  0  0  0  0  0
    0.0001   -1.0201    3.4727 H   0  0  0  0  0  0
    1.2714    1.0649    5.2962 H   0  0  0  0  0  0
    1.2630    1.1321    3.5478 H   0  0  0  0  0  0
    2.5622   -1.0205    3.4596 H   0  0  0  0  0  0
    3.4338    0.2033    4.3785 H   0  0  0  0  0  0
    2.5685   -1.0821    5.2164 H   0  0  0  0  0  0
  1  2  2  0  0  0
  1  3  1  0  0  0
  1  4  1  0  0  0
  2  5  1  0  0  0
  2  6  1  0  0  0
  7  8  1  0  0  0
  8  9  1  0  0  0
  9 10  1  0  0  0
 10 11  1  0  0  0
  7 12  1  0  0  0
  7 13  1  0  0  0
  7 14  1  0  0  0
  8 15  1  0  0  0
  8 16  1  0  0  0
  9 17  1  0  0  0
  9 18  1  0  0  0
 10 19  1  0  0  0
 10 20  1  0  0  0
 11 21  1  0  0  0
 11 22  1  0  0  0
 11 23  1  0  0  0
M  END
$$$$
