


 23 21  0  0  1  0            999 V2000
    0.6664    0.1838    0.4197 C   0  0  0  0  0  0
   -0.6660    0.1830    0.4196 C   0  0  0  0  0  0
    1.2289   -0.3299    1.1863 H   0  0  0  0  0  0
    1.2280    0.6972   -0.3476 H   0  0  0  0  0  0
   -1.2279   -0.3315    1.1861 H   0  0  0  0  0  0
   -1.2282    0.6956   -0.3478 H   0  0  0  0  0  0
   -2.5327   -0.3882    4.0605 C   0  0  0  0  0  0
   -1.2713    0.4645    4.0964 C   0  0  0  0  0  0
   -0.0000   -0.3730    4.0694 C   0  0  0  0  0  0
    1.2712    0.4646    4.0968 C   0  0  0  0  0  0
    2.5326   -0.3882    4.0610 C   0  0  0  0  0  0
   -2.5622   -1.0012    3.1593 H   0  0  0  0  0  0
   -2.5689   -1.0624    4.9162 H   0  0  0  0  0  0
   -3.4339    0.2229    4.0778 H   0  0  0  0  0  0
   -1.2717    1.0846    4.9957 H   0  0  0  0  0  0
   -1.2629    1.1514    3.2473 H   0  0  0  0  0  0
   -0.0002   -1.0597    4.9212 H   0  0  0  0  0  0
    0.0001   -1.0006    3.1728 H   0  0  0  0  0  0
    1.2715    1.0844    4.9963 H   0  0  0  0  0  0
    1.2630    1.1516    3.2479 H   0  0  0  0  0  0
    2.5622   -1.0010    3.1597 H   0  0  0  0  0  0
    3.4338    0.2228    4.0786 H   0  0  0  0  0  0
    2.5686   -1.0626    4.9165 H   0  0  0  0  0  0
  1  2  2  0  0  0
  1  3  1  0  0  0
  1  4  1  0  0  0
  2  5  1  0  0  0
  2  6  1  0  0  0
  7  8  1  0  0  0
  8  9  1  0  0  0
  9 10  1  0  0  0
 10 11  1  0  0  0
  7 12  1  0  0  0
  7 13  1  0  0  0
  7 14  1  0  0  0
  8 15  1  0  0  0
  8 16  1  0  0  0
  9 17  1  0  0  0
  9 18  1  0  0  0
 10 19  1  0  0  0
 10 20  1  0  0  0
 11 21  1  0  0  0
 11 22  1  0  0  0
 11 23  1  0  0  0
M  END
$$$$
