


 23 21  0  0  1  0            999 V2000
    0.6664    0.1838    0.4197 C   0  0  0  0  0  0
   -0.6660    0.1830    0.4196 C   0  0  0  0  0  0
    1.2289   -0.3299    1.1863 H   0  0  0  0  0  0
    1.2280    0.6972   -0.3476 H   0  0  0  0  0  0
   -1.2279   -0.3315    1.1861 H   0  0  0  0  0  0
   -1.2282    0.6956   -0.3478 H   0  0  0  0  0  0
   -2.5328   -0.4450    4.9347 C   0  0  0  0  0  0
   -1.2714    0.4077    4.9705 C   0  0  0  0  0  0
   -0.0001   -0.4299    4.9436 C   0  0  0  0  0  0
    1.2711    0.4077    4.9710 C   0  0  0  0  0  0
    2.5326   -0.4450    4.9351 C   0  0  0  0  0  0
   -2.5623   -1.0580    4.0335 H   0  0  0  0  0  0
   -2.5689   -1.1192    5.7903 H   0  0  0  0  0  0
   -3.4340    0.1660    4.9519 H   0  0  0  0  0  0
   -1.2718    1.0278    5.8699 H   0  0  0  0  0  0
   -1.2630    1.0946    4.1214 H   0  0  0  0  0  0
   -0.0003   -1.1165    5.7954 H   0  0  0  0  0  0
    0.0000   -1.0574    4.0469 H   0  0  0  0  0  0
    1.2714    1.0275    5.8704 H   0  0  0  0  0  0
    1.2629    1.0948    4.1220 H   0  0  0  0  0  0
    2.5622   -1.0579    4.0338 H   0  0  0  0  0  0
    3.4337    0.1659    4.9527 H   0  0  0  0  0  0
    2.5685   -1.1194    5.7906 H   0  0  0  0  0  0
  1  2  2  0  0  0
  1  3  1  0  0  0
  1  4  1  0  0  0
  2  5  1  0  0  0
  2  6  1  0  0  0
  7  8  1  0  0  0
  8  9  1  0  0  0
  9 10  1  0  0  0
 10 11  1  0  0  0
  7 12  1  0  0  0
  7 13  1  0  0  0
  7 14  1  0  0  0
  8 15  1  0  0  0
  8 16  1  0  0  0
  9 17  1  0  0  0
  9 18  1  0  0  0
 10 19  1  0  0  0
 10 20  1  0  0  0
 11 21  1  0  0  0
 11 22  1  0  0  0
 11 23  1  0  0  0
M  END
$$$$
