


 23 21  0  0  1  0            999 V2000
    0.6664    0.1838    0.4197 C   0  0  0  0  0  0
   -0.6660    0.1830    0.4196 C   0  0  0  0  0  0
    1.2289   -0.3299    1.1863 H   0  0  0  0  0  0
    1.2280    0.6972   -0.3476 H   0  0  0  0  0  0
   -1.2279   -0.3315    1.1861 H   0  0  0  0  0  0
   -1.2282    0.6956   -0.3478 H   0  0  0  0  0  0
   -2.5329   -0.4899    5.6254 C   0  0  0  0  0  0
   -1.2714    0.3628    5.6612 C   0  0  0  0  0  0
   -0.0002   -0.4748    5.6343 C   0  0  0  0  0  0
    1.2711    0.3628    5.6617 C   0  0  0  0  0  0
    2.5325   -0.4899    5.6259 C   0  0  0  0  0  0
   -2.5624   -1.1029    4.7242 H   0  0  0  0  0  0
   -2.5690   -1.1641    6.4810 H   0  0  0  0  0  0
   -3.4340    0.1211    5.6427 H   0  0  0  0  0  0
   -1.2718    0.9829    6.5606 H   0  0  0  0  0  0
   -1.2630    1.0497    4.8122 H   0  0  0  0  0  0
   -0.0003   -1.1614    6.4861 H   0  0  0  0  0  0
   -0.0000   -1.1023    4.7376 H   0  0  0  0  0  0
    1.2713    0.9826    6.5612 H   0  0  0  0  0  0
    1.2629    1.0499    4.8128 H   0  0  0  0  0  0
    2.5621   -1.1027    4.7245 H   0  0  0  0  0  0
    3.4337    0.1210    5.6434 H   0  0  0  0  0  0
    2.5684   -1.1644    6.4814 H   0  0  0  0  0  0
  1  2  2  0  0  0
  1  3  1  0  0  0
  1  4  1  0  0  0
  2  5  1  0  0  0
  2  6  1  0  0  0
  7  8  1  0  0  0
  8  9  1  0  0  0
  9 10  1  0  0  0
 10 11  1  0  0  0
  7 12  1  0  0  0
  7 13  1  0  0  0
  7 14  1  0  0  0
  8 15  1  0  0  0
  8 16  1  0  0  0
  9 17  1  0  0  0
  9 18  1  0  0  0
 10 19  1  0  0  0
 10 20  1  0  0  0
 11 21  1  0  0  0
 11 22  1  0  0  0
 11 23  1  0  0  0
M  END
$$$$
