


 23 21  0  0  1  0            999 V2000
    0.6664    0.1838    0.4197 C   0  0  0  0  0  0
   -0.6660    0.1830    0.4196 C   0  0  0  0  0  0
    1.2289   -0.3299    1.1863 H   0  0  0  0  0  0
    1.2280    0.6972   -0.3476 H   0  0  0  0  0  0
   -1.2279   -0.3315    1.1861 H   0  0  0  0  0  0
   -1.2282    0.6956   -0.3478 H   0  0  0  0  0  0
   -2.5327   -0.3781    3.9056 C   0  0  0  0  0  0
   -1.2713    0.4746    3.9414 C   0  0  0  0  0  0
   -0.0000   -0.3630    3.9145 C   0  0  0  0  0  0
    1.2712    0.4746    3.9419 C   0  0  0  0  0  0
    2.5326   -0.3781    3.9061 C   0  0  0  0  0  0
   -2.5622   -0.9911    3.0044 H   0  0  0  0  0  0
   -2.5689   -1.0523    4.7612 H   0  0  0  0  0  0
   -3.4339    0.2329    3.9228 H   0  0  0  0  0  0
   -1.2717    1.0947    4.8408 H   0  0  0  0  0  0
   -1.2629    1.1615    3.0924 H   0  0  0  0  0  0
   -0.0002   -1.0496    4.7663 H   0  0  0  0  0  0
    0.0001   -0.9905    3.0178 H   0  0  0  0  0  0
    1.2715    1.0944    4.8414 H   0  0  0  0  0  0
    1.2630    1.1617    3.0930 H   0  0  0  0  0  0
    2.5623   -0.9909    3.0048 H   0  0  0  0  0  0
    3.4338    0.2328    3.9236 H   0  0  0  0  0  0
    2.5686   -1.0525    4.7616 H   0  0  0  0  0  0
  1  2  2  0  0  0
  1  3  1  0  0  0
  1  4  1  0  0  0
  2  5  1  0  0  0
  2  6  1  0  0  0
  7  8  1  0  0  0
  8  9  1  0  0  0
  9 10  1  0  0  0
 10 11  1  0  0  0
  7 12  1  0  0  0
  7 13  1  0  0  0
  7 14  1  0  0  0
  8 15  1  0  0  0
  8 16  1  0  0  0
  9 17  1  0  0  0
  9 18  1  0  0  0
 10 19  1  0  0  0
 10 20  1  0  0  0
 11 21  1  0  0  0
 11 22  1  0  0  0
 11 23  1  0  0  0
M  END
$$$$
