


 23 21  0  0  1  0            999 V2000
    0.6664    0.1838    0.4197 C   0  0  0  0  0  0
   -0.6660    0.1830    0.4196 C   0  0  0  0  0  0
    1.2289   -0.3299    1.1863 H   0  0  0  0  0  0
    1.2280    0.6972   -0.3476 H   0  0  0  0  0  0
   -1.2279   -0.3315    1.1861 H   0  0  0  0  0  0
   -1.2282    0.6956   -0.3478 H   0  0  0  0  0  0
   -2.5328   -0.3980    4.2118 C   0  0  0  0  0  0
   -1.2713    0.4547    4.2476 C   0  0  0  0  0  0
   -0.0000   -0.3829    4.2207 C   0  0  0  0  0  0
    1.2712    0.4547    4.2481 C   0  0  0  0  0  0
    2.5326   -0.3980    4.2123 C   0  0  0  0  0  0
   -2.5623   -1.0110    3.3106 H   0  0  0  0  0  0
   -2.5689   -1.0722    5.0674 H   0  0  0  0  0  0
   -3.4339    0.2130    4.2291 H   0  0  0  0  0  0
   -1.2717    1.0748    5.1470 H   0  0  0  0  0  0
   -1.2629    1.1416    3.3986 H   0  0  0  0  0  0
   -0.0002   -1.0695    5.0725 H   0  0  0  0  0  0
    0.0001   -1.0104    3.3241 H   0  0  0  0  0  0
    1.2714    1.0745    5.1476 H   0  0  0  0  0  0
    1.2630    1.1418    3.3992 H   0  0  0  0  0  0
    2.5622   -1.0109    3.3110 H   0  0  0  0  0  0
    3.4338    0.2129    4.2299 H   0  0  0  0  0  0
    2.5685   -1.0725    5.0678 H   0  0  0  0  0  0
  1  2  2  0  0  0
  1  3  1  0  0  0
  1  4  1  0  0  0
  2  5  1  0  0  0
  2  6  1  0  0  0
  7  8  1  0  0  0
  8  9  1  0  0  0
  9 10  1  0  0  0
 10 11  1  0  0  0
  7 12  1  0  0  0
  7 13  1  0  0  0
  7 14  1  0  0  0
  8 15  1  0  0  0
  8 16  1  0  0  0
  9 17  1  0  0  0
  9 18  1  0  0  0
 10 19  1  0  0  0
 10 20  1  0  0  0
 11 21  1  0  0  0
 11 22  1  0  0  0
 11 23  1  0  0  0
M  END
$$$$
