


 23 21  0  0  1  0            999 V2000
    0.6664    0.1838    0.4197 C   0  0  0  0  0  0
   -0.6660    0.1830    0.4196 C   0  0  0  0  0  0
    1.2289   -0.3299    1.1863 H   0  0  0  0  0  0
    1.2280    0.6972   -0.3476 H   0  0  0  0  0  0
   -1.2279   -0.3315    1.1861 H   0  0  0  0  0  0
   -1.2282    0.6956   -0.3478 H   0  0  0  0  0  0
   -2.5330   -0.5769    6.9644 C   0  0  0  0  0  0
   -1.2715    0.2758    7.0002 C   0  0  0  0  0  0
   -0.0003   -0.5618    6.9732 C   0  0  0  0  0  0
    1.2710    0.2758    7.0006 C   0  0  0  0  0  0
    2.5324   -0.5769    6.9648 C   0  0  0  0  0  0
   -2.5625   -1.1899    6.0632 H   0  0  0  0  0  0
   -2.5691   -1.2511    7.8200 H   0  0  0  0  0  0
   -3.4341    0.0341    6.9816 H   0  0  0  0  0  0
   -1.2719    0.8959    7.8996 H   0  0  0  0  0  0
   -1.2631    0.9627    6.1511 H   0  0  0  0  0  0
   -0.0004   -1.2485    7.8251 H   0  0  0  0  0  0
   -0.0001   -1.1894    6.0766 H   0  0  0  0  0  0
    1.2712    0.8956    7.9001 H   0  0  0  0  0  0
    1.2628    0.9629    6.1517 H   0  0  0  0  0  0
    2.5620   -1.1898    6.0635 H   0  0  0  0  0  0
    3.4336    0.0340    6.9824 H   0  0  0  0  0  0
    2.5683   -1.2514    7.8203 H   0  0  0  0  0  0
  1  2  2  0  0  0
  1  3  1  0  0  0
  1  4  1  0  0  0
  2  5  1  0  0  0
  2  6  1  0  0  0
  7  8  1  0  0  0
  8  9  1  0  0  0
  9 10  1  0  0  0
 10 11  1  0  0  0
  7 12  1  0  0  0
  7 13  1  0  0  0
  7 14  1  0  0  0
  8 15  1  0  0  0
  8 16  1  0  0  0
  9 17  1  0  0  0
  9 18  1  0  0  0
 10 19  1  0  0  0
 10 20  1  0  0  0
 11 21  1  0  0  0
 11 22  1  0  0  0
 11 23  1  0  0  0
M  END
$$$$
