


 23 21  0  0  1  0            999 V2000
    0.6664    0.1838    0.4197 C   0  0  0  0  0  0
   -0.6660    0.1830    0.4196 C   0  0  0  0  0  0
    1.2289   -0.3299    1.1863 H   0  0  0  0  0  0
    1.2280    0.6972   -0.3476 H   0  0  0  0  0  0
   -1.2279   -0.3315    1.1861 H   0  0  0  0  0  0
   -1.2282    0.6956   -0.3478 H   0  0  0  0  0  0
   -2.5328   -0.4171    4.5066 C   0  0  0  0  0  0
   -1.2714    0.4355    4.5425 C   0  0  0  0  0  0
   -0.0001   -0.4020    4.5155 C   0  0  0  0  0  0
    1.2711    0.4356    4.5429 C   0  0  0  0  0  0
    2.5326   -0.4172    4.5071 C   0  0  0  0  0  0
   -2.5623   -1.0302    3.6054 H   0  0  0  0  0  0
   -2.5689   -1.0914    5.3623 H   0  0  0  0  0  0
   -3.4340    0.1939    4.5239 H   0  0  0  0  0  0
   -1.2718    1.0556    5.4419 H   0  0  0  0  0  0
   -1.2630    1.1224    3.6934 H   0  0  0  0  0  0
   -0.0002   -1.0887    5.3674 H   0  0  0  0  0  0
    0.0001   -1.0296    3.6189 H   0  0  0  0  0  0
    1.2714    1.0554    5.4424 H   0  0  0  0  0  0
    1.2629    1.1226    3.6940 H   0  0  0  0  0  0
    2.5622   -1.0300    3.6058 H   0  0  0  0  0  0
    3.4338    0.1938    4.5247 H   0  0  0  0  0  0
    2.5685   -1.0916    5.3626 H   0  0  0  0  0  0
  1  2  2  0  0  0
  1  3  1  0  0  0
  1  4  1  0  0  0
  2  5  1  0  0  0
  2  6  1  0  0  0
  7  8  1  0  0  0
  8  9  1  0  0  0
  9 10  1  0  0  0
 10 11  1  0  0  0
  7 12  1  0  0  0
  7 13  1  0  0  0
  7 14  1  0  0  0
  8 15  1  0  0  0
  8 16  1  0  0  0
  9 17  1  0  0  0
  9 18  1  0  0  0
 10 19  1  0  0  0
 10 20  1  0  0  0
 11 21  1  0  0  0
 11 22  1  0  0  0
 11 23  1  0  0  0
M  END
$$$$
