


 29 28  0  0  1  0            999 V2000
    1.1194    2.3542    3.7956 C   0  0  0  0  0  0
    1.1925    0.8353    3.8851 C   0  0  0  0  0  0
   -0.1723    0.1771    3.7303 C   0  0  0  0  0  0
   -0.1160   -1.3435    3.7899 C   0  0  0  0  0  0
   -1.4853   -1.9854    3.6062 C   0  0  0  0  0  0
    0.6886    2.6652    2.8428 H   0  0  0  0  0  0
    0.4852    2.7596    4.5838 H   0  0  0  0  0  0
    2.1023    2.8146    3.8887 H   0  0  0  0  0  0
    1.6228    0.5458    4.8464 H   0  0  0  0  0  0
    1.8670    0.4442    3.1200 H   0  0  0  0  0  0
   -0.8436    0.5460    4.5119 H   0  0  0  0  0  0
   -0.6198    0.4874    2.7804 H   0  0  0  0  0  0
    0.3076   -1.6460    4.7506 H   0  0  0  0  0  0
    0.5755   -1.7054    3.0254 H   0  0  0  0  0  0
   -1.9237   -1.7120    2.6460 H   0  0  0  0  0  0
   -1.4284   -3.0722    3.6502 H   0  0  0  0  0  0
   -2.1733   -1.6571    4.3854 H   0  0  0  0  0  0
   -2.4612   -1.0108    0.1979 O   0  0  0  0  0  0
   -1.4463   -0.3446    0.3067 C   0  0  0  0  0  0
   -1.3578    1.1032    0.2281 C   0  0  0  0  0  0
   -0.1630    1.7099    0.3811 C   0  0  0  0  0  0
    0.9855    1.0008    0.6112 N   0  0  0  0  0  0
    1.8676    1.4669    0.7448 H   0  0  0  0  0  0
    1.0270   -0.3792    0.7127 C   0  0  0  0  0  0
    2.0492   -0.9974    0.9373 O   0  0  0  0  0  0
   -0.2089   -0.9646    0.5348 N   0  0  0  0  0  0
   -0.2242   -1.9731    0.6051 H   0  0  0  0  0  0
   -2.2566    1.6677    0.0498 H   0  0  0  0  0  0
   -0.0463    2.7824    0.3334 H   0  0  0  0  0  0
  1  2  1  0  0  0
  2  3  1  0  0  0
  3  4  1  0  0  0
  4  5  1  0  0  0
  1  6  1  0  0  0
  1  7  1  0  0  0
  1  8  1  0  0  0
  2  9  1  0  0  0
  2 10  1  0  0  0
  3 11  1  0  0  0
  3 12  1  0  0  0
  4 13  1  0  0  0
  4 14  1  0  0  0
  5 15  1  0  0  0
  5 16  1  0  0  0
  5 17  1  0  0  0
 18 19  2  0  0  0
 19 20  1  0  0  0
 20 21  2  0  0  0
 21 22  1  0  0  0
 22 23  1  0  0  0
 22 24  1  0  0  0
 24 25  2  0  0  0
 24 26  1  0  0  0
 26 27  1  0  0  0
 19 26  1  0  0  0
 20 28  1  0  0  0
 21 29  1  0  0  0
M  END
$$$$
