


 29 28  0  0  1  0            999 V2000
    1.1317    2.3558    3.9419 C   0  0  0  0  0  0
    1.2047    0.8369    4.0314 C   0  0  0  0  0  0
   -0.1600    0.1787    3.8766 C   0  0  0  0  0  0
   -0.1037   -1.3420    3.9362 C   0  0  0  0  0  0
   -1.4730   -1.9838    3.7524 C   0  0  0  0  0  0
    0.7009    2.6668    2.9891 H   0  0  0  0  0  0
    0.4975    2.7612    4.7301 H   0  0  0  0  0  0
    2.1146    2.8162    4.0350 H   0  0  0  0  0  0
    1.6351    0.5473    4.9927 H   0  0  0  0  0  0
    1.8793    0.4457    3.2663 H   0  0  0  0  0  0
   -0.8313    0.5476    4.6582 H   0  0  0  0  0  0
   -0.6075    0.4890    2.9267 H   0  0  0  0  0  0
    0.3199   -1.6444    4.8969 H   0  0  0  0  0  0
    0.5878   -1.7038    3.1717 H   0  0  0  0  0  0
   -1.9114   -1.7104    2.7923 H   0  0  0  0  0  0
   -1.4161   -3.0706    3.7965 H   0  0  0  0  0  0
   -2.1610   -1.6555    4.5317 H   0  0  0  0  0  0
   -2.4612   -1.0108    0.1979 O   0  0  0  0  0  0
   -1.4463   -0.3446    0.3067 C   0  0  0  0  0  0
   -1.3578    1.1032    0.2281 C   0  0  0  0  0  0
   -0.1630    1.7099    0.3811 C   0  0  0  0  0  0
    0.9855    1.0008    0.6112 N   0  0  0  0  0  0
    1.8676    1.4669    0.7448 H   0  0  0  0  0  0
    1.0270   -0.3792    0.7127 C   0  0  0  0  0  0
    2.0492   -0.9974    0.9373 O   0  0  0  0  0  0
   -0.2089   -0.9646    0.5348 N   0  0  0  0  0  0
   -0.2242   -1.9731    0.6051 H   0  0  0  0  0  0
   -2.2566    1.6677    0.0498 H   0  0  0  0  0  0
   -0.0463    2.7824    0.3334 H   0  0  0  0  0  0
  1  2  1  0  0  0
  2  3  1  0  0  0
  3  4  1  0  0  0
  4  5  1  0  0  0
  1  6  1  0  0  0
  1  7  1  0  0  0
  1  8  1  0  0  0
  2  9  1  0  0  0
  2 10  1  0  0  0
  3 11  1  0  0  0
  3 12  1  0  0  0
  4 13  1  0  0  0
  4 14  1  0  0  0
  5 15  1  0  0  0
  5 16  1  0  0  0
  5 17  1  0  0  0
 18 19  2  0  0  0
 19 20  1  0  0  0
 20 21  2  0  0  0
 21 22  1  0  0  0
 22 23  1  0  0  0
 22 24  1  0  0  0
 24 25  2  0  0  0
 24 26  1  0  0  0
 26 27  1  0  0  0
 19 26  1  0  0  0
 20 28  1  0  0  0
 21 29  1  0  0  0
M  END
$$$$
