


 29 28  0  0  1  0            999 V2000
    1.4111    2.3920    7.2654 C   0  0  0  0  0  0
    1.4841    0.8732    7.3549 C   0  0  0  0  0  0
    0.1193    0.2150    7.2001 C   0  0  0  0  0  0
    0.1756   -1.3057    7.2597 C   0  0  0  0  0  0
   -1.1937   -1.9476    7.0759 C   0  0  0  0  0  0
    0.9802    2.7031    6.3126 H   0  0  0  0  0  0
    0.7769    2.7975    8.0536 H   0  0  0  0  0  0
    2.3940    2.8525    7.3585 H   0  0  0  0  0  0
    1.9145    0.5836    8.3162 H   0  0  0  0  0  0
    2.1587    0.4820    6.5898 H   0  0  0  0  0  0
   -0.5519    0.5839    7.9817 H   0  0  0  0  0  0
   -0.3282    0.5253    6.2502 H   0  0  0  0  0  0
    0.5992   -1.6081    8.2203 H   0  0  0  0  0  0
    0.8671   -1.6676    6.4952 H   0  0  0  0  0  0
   -1.6321   -1.6741    6.1157 H   0  0  0  0  0  0
   -1.1367   -3.0343    7.1200 H   0  0  0  0  0  0
   -1.8816   -1.6192    7.8552 H   0  0  0  0  0  0
   -2.4612   -1.0108    0.1979 O   0  0  0  0  0  0
   -1.4463   -0.3446    0.3067 C   0  0  0  0  0  0
   -1.3578    1.1032    0.2281 C   0  0  0  0  0  0
   -0.1630    1.7099    0.3811 C   0  0  0  0  0  0
    0.9855    1.0008    0.6112 N   0  0  0  0  0  0
    1.8676    1.4669    0.7448 H   0  0  0  0  0  0
    1.0270   -0.3792    0.7127 C   0  0  0  0  0  0
    2.0492   -0.9974    0.9373 O   0  0  0  0  0  0
   -0.2089   -0.9646    0.5348 N   0  0  0  0  0  0
   -0.2242   -1.9731    0.6051 H   0  0  0  0  0  0
   -2.2566    1.6677    0.0498 H   0  0  0  0  0  0
   -0.0463    2.7824    0.3334 H   0  0  0  0  0  0
  1  2  1  0  0  0
  2  3  1  0  0  0
  3  4  1  0  0  0
  4  5  1  0  0  0
  1  6  1  0  0  0
  1  7  1  0  0  0
  1  8  1  0  0  0
  2  9  1  0  0  0
  2 10  1  0  0  0
  3 11  1  0  0  0
  3 12  1  0  0  0
  4 13  1  0  0  0
  4 14  1  0  0  0
  5 15  1  0  0  0
  5 16  1  0  0  0
  5 17  1  0  0  0
 18 19  2  0  0  0
 19 20  1  0  0  0
 20 21  2  0  0  0
 21 22  1  0  0  0
 22 23  1  0  0  0
 22 24  1  0  0  0
 24 25  2  0  0  0
 24 26  1  0  0  0
 26 27  1  0  0  0
 19 26  1  0  0  0
 20 28  1  0  0  0
 21 29  1  0  0  0
M  END
$$$$
