


 29 28  0  0  1  0            999 V2000
    1.1710    2.3609    4.4090 C   0  0  0  0  0  0
    1.2440    0.8420    4.4985 C   0  0  0  0  0  0
   -0.1208    0.1838    4.3437 C   0  0  0  0  0  0
   -0.0645   -1.3369    4.4033 C   0  0  0  0  0  0
   -1.4338   -1.9787    4.2196 C   0  0  0  0  0  0
    0.7401    2.6719    3.4562 H   0  0  0  0  0  0
    0.5368    2.7663    5.1973 H   0  0  0  0  0  0
    2.1539    2.8213    4.5021 H   0  0  0  0  0  0
    1.6744    0.5524    5.4598 H   0  0  0  0  0  0
    1.9186    0.4508    3.7334 H   0  0  0  0  0  0
   -0.7920    0.5527    5.1253 H   0  0  0  0  0  0
   -0.5682    0.4941    3.3938 H   0  0  0  0  0  0
    0.3591   -1.6393    5.3640 H   0  0  0  0  0  0
    0.6270   -1.6987    3.6388 H   0  0  0  0  0  0
   -1.8721   -1.7053    3.2594 H   0  0  0  0  0  0
   -1.3768   -3.0655    4.2636 H   0  0  0  0  0  0
   -2.1217   -1.6504    4.9988 H   0  0  0  0  0  0
   -2.4612   -1.0108    0.1979 O   0  0  0  0  0  0
   -1.4463   -0.3446    0.3067 C   0  0  0  0  0  0
   -1.3578    1.1032    0.2281 C   0  0  0  0  0  0
   -0.1630    1.7099    0.3811 C   0  0  0  0  0  0
    0.9855    1.0008    0.6112 N   0  0  0  0  0  0
    1.8676    1.4669    0.7448 H   0  0  0  0  0  0
    1.0270   -0.3792    0.7127 C   0  0  0  0  0  0
    2.0492   -0.9974    0.9373 O   0  0  0  0  0  0
   -0.2089   -0.9646    0.5348 N   0  0  0  0  0  0
   -0.2242   -1.9731    0.6051 H   0  0  0  0  0  0
   -2.2566    1.6677    0.0498 H   0  0  0  0  0  0
   -0.0463    2.7824    0.3334 H   0  0  0  0  0  0
  1  2  1  0  0  0
  2  3  1  0  0  0
  3  4  1  0  0  0
  4  5  1  0  0  0
  1  6  1  0  0  0
  1  7  1  0  0  0
  1  8  1  0  0  0
  2  9  1  0  0  0
  2 10  1  0  0  0
  3 11  1  0  0  0
  3 12  1  0  0  0
  4 13  1  0  0  0
  4 14  1  0  0  0
  5 15  1  0  0  0
  5 16  1  0  0  0
  5 17  1  0  0  0
 18 19  2  0  0  0
 19 20  1  0  0  0
 20 21  2  0  0  0
 21 22  1  0  0  0
 22 23  1  0  0  0
 22 24  1  0  0  0
 24 25  2  0  0  0
 24 26  1  0  0  0
 26 27  1  0  0  0
 19 26  1  0  0  0
 20 28  1  0  0  0
 21 29  1  0  0  0
M  END
$$$$
