


 29 28  0  0  1  0            999 V2000
    1.1440    2.3574    4.0876 C   0  0  0  0  0  0
    1.2170    0.8385    4.1771 C   0  0  0  0  0  0
   -0.1478    0.1803    4.0223 C   0  0  0  0  0  0
   -0.0915   -1.3404    4.0819 C   0  0  0  0  0  0
   -1.4608   -1.9822    3.8982 C   0  0  0  0  0  0
    0.7131    2.6684    3.1348 H   0  0  0  0  0  0
    0.5097    2.7628    4.8759 H   0  0  0  0  0  0
    2.1269    2.8178    4.1807 H   0  0  0  0  0  0
    1.6474    0.5489    5.1384 H   0  0  0  0  0  0
    1.8916    0.4473    3.4120 H   0  0  0  0  0  0
   -0.8190    0.5492    4.8039 H   0  0  0  0  0  0
   -0.5953    0.4906    3.0724 H   0  0  0  0  0  0
    0.3321   -1.6428    5.0426 H   0  0  0  0  0  0
    0.6000   -1.7022    3.3174 H   0  0  0  0  0  0
   -1.8992   -1.7088    2.9380 H   0  0  0  0  0  0
   -1.4038   -3.0690    3.9422 H   0  0  0  0  0  0
   -2.1488   -1.6539    4.6774 H   0  0  0  0  0  0
   -2.4612   -1.0108    0.1979 O   0  0  0  0  0  0
   -1.4463   -0.3446    0.3067 C   0  0  0  0  0  0
   -1.3578    1.1032    0.2281 C   0  0  0  0  0  0
   -0.1630    1.7099    0.3811 C   0  0  0  0  0  0
    0.9855    1.0008    0.6112 N   0  0  0  0  0  0
    1.8676    1.4669    0.7448 H   0  0  0  0  0  0
    1.0270   -0.3792    0.7127 C   0  0  0  0  0  0
    2.0492   -0.9974    0.9373 O   0  0  0  0  0  0
   -0.2089   -0.9646    0.5348 N   0  0  0  0  0  0
   -0.2242   -1.9731    0.6051 H   0  0  0  0  0  0
   -2.2566    1.6677    0.0498 H   0  0  0  0  0  0
   -0.0463    2.7824    0.3334 H   0  0  0  0  0  0
  1  2  1  0  0  0
  2  3  1  0  0  0
  3  4  1  0  0  0
  4  5  1  0  0  0
  1  6  1  0  0  0
  1  7  1  0  0  0
  1  8  1  0  0  0
  2  9  1  0  0  0
  2 10  1  0  0  0
  3 11  1  0  0  0
  3 12  1  0  0  0
  4 13  1  0  0  0
  4 14  1  0  0  0
  5 15  1  0  0  0
  5 16  1  0  0  0
  5 17  1  0  0  0
 18 19  2  0  0  0
 19 20  1  0  0  0
 20 21  2  0  0  0
 21 22  1  0  0  0
 22 23  1  0  0  0
 22 24  1  0  0  0
 24 25  2  0  0  0
 24 26  1  0  0  0
 26 27  1  0  0  0
 19 26  1  0  0  0
 20 28  1  0  0  0
 21 29  1  0  0  0
M  END
$$$$
