


 29 28  0  0  1  0            999 V2000
    1.2140    2.3665    4.9203 C   0  0  0  0  0  0
    1.2870    0.8476    5.0098 C   0  0  0  0  0  0
   -0.0778    0.1894    4.8550 C   0  0  0  0  0  0
   -0.0215   -1.3313    4.9146 C   0  0  0  0  0  0
   -1.3908   -1.9732    4.7308 C   0  0  0  0  0  0
    0.7831    2.6775    3.9675 H   0  0  0  0  0  0
    0.5797    2.7719    5.7085 H   0  0  0  0  0  0
    2.1969    2.8269    5.0134 H   0  0  0  0  0  0
    1.7174    0.5580    5.9711 H   0  0  0  0  0  0
    1.9616    0.4564    4.2447 H   0  0  0  0  0  0
   -0.7490    0.5583    5.6366 H   0  0  0  0  0  0
   -0.5253    0.4997    3.9051 H   0  0  0  0  0  0
    0.4021   -1.6337    5.8752 H   0  0  0  0  0  0
    0.6700   -1.6932    4.1501 H   0  0  0  0  0  0
   -1.8292   -1.6997    3.7706 H   0  0  0  0  0  0
   -1.3339   -3.0599    4.7749 H   0  0  0  0  0  0
   -2.0788   -1.6448    5.5101 H   0  0  0  0  0  0
   -2.4612   -1.0108    0.1979 O   0  0  0  0  0  0
   -1.4463   -0.3446    0.3067 C   0  0  0  0  0  0
   -1.3578    1.1032    0.2281 C   0  0  0  0  0  0
   -0.1630    1.7099    0.3811 C   0  0  0  0  0  0
    0.9855    1.0008    0.6112 N   0  0  0  0  0  0
    1.8676    1.4669    0.7448 H   0  0  0  0  0  0
    1.0270   -0.3792    0.7127 C   0  0  0  0  0  0
    2.0492   -0.9974    0.9373 O   0  0  0  0  0  0
   -0.2089   -0.9646    0.5348 N   0  0  0  0  0  0
   -0.2242   -1.9731    0.6051 H   0  0  0  0  0  0
   -2.2566    1.6677    0.0498 H   0  0  0  0  0  0
   -0.0463    2.7824    0.3334 H   0  0  0  0  0  0
  1  2  1  0  0  0
  2  3  1  0  0  0
  3  4  1  0  0  0
  4  5  1  0  0  0
  1  6  1  0  0  0
  1  7  1  0  0  0
  1  8  1  0  0  0
  2  9  1  0  0  0
  2 10  1  0  0  0
  3 11  1  0  0  0
  3 12  1  0  0  0
  4 13  1  0  0  0
  4 14  1  0  0  0
  5 15  1  0  0  0
  5 16  1  0  0  0
  5 17  1  0  0  0
 18 19  2  0  0  0
 19 20  1  0  0  0
 20 21  2  0  0  0
 21 22  1  0  0  0
 22 23  1  0  0  0
 22 24  1  0  0  0
 24 25  2  0  0  0
 24 26  1  0  0  0
 26 27  1  0  0  0
 19 26  1  0  0  0
 20 28  1  0  0  0
 21 29  1  0  0  0
M  END
$$$$
