


 29 28  0  0  1  0            999 V2000
    1.2821    2.3753    5.7303 C   0  0  0  0  0  0
    1.3551    0.8564    5.8198 C   0  0  0  0  0  0
   -0.0097    0.1982    5.6650 C   0  0  0  0  0  0
    0.0466   -1.3224    5.7246 C   0  0  0  0  0  0
   -1.3227   -1.9643    5.5409 C   0  0  0  0  0  0
    0.8512    2.6863    4.7775 H   0  0  0  0  0  0
    0.6478    2.7807    6.5185 H   0  0  0  0  0  0
    2.2649    2.8357    5.8234 H   0  0  0  0  0  0
    1.7855    0.5669    6.7811 H   0  0  0  0  0  0
    2.0297    0.4652    5.0547 H   0  0  0  0  0  0
   -0.6810    0.5671    6.4466 H   0  0  0  0  0  0
   -0.4572    0.5085    4.7151 H   0  0  0  0  0  0
    0.4702   -1.6249    6.6853 H   0  0  0  0  0  0
    0.7381   -1.6843    4.9601 H   0  0  0  0  0  0
   -1.7611   -1.6909    4.5807 H   0  0  0  0  0  0
   -1.2658   -3.0511    5.5849 H   0  0  0  0  0  0
   -2.0107   -1.6360    6.3201 H   0  0  0  0  0  0
   -2.4612   -1.0108    0.1979 O   0  0  0  0  0  0
   -1.4463   -0.3446    0.3067 C   0  0  0  0  0  0
   -1.3578    1.1032    0.2281 C   0  0  0  0  0  0
   -0.1630    1.7099    0.3811 C   0  0  0  0  0  0
    0.9855    1.0008    0.6112 N   0  0  0  0  0  0
    1.8676    1.4669    0.7448 H   0  0  0  0  0  0
    1.0270   -0.3792    0.7127 C   0  0  0  0  0  0
    2.0492   -0.9974    0.9373 O   0  0  0  0  0  0
   -0.2089   -0.9646    0.5348 N   0  0  0  0  0  0
   -0.2242   -1.9731    0.6051 H   0  0  0  0  0  0
   -2.2566    1.6677    0.0498 H   0  0  0  0  0  0
   -0.0463    2.7824    0.3334 H   0  0  0  0  0  0
  1  2  1  0  0  0
  2  3  1  0  0  0
  3  4  1  0  0  0
  4  5  1  0  0  0
  1  6  1  0  0  0
  1  7  1  0  0  0
  1  8  1  0  0  0
  2  9  1  0  0  0
  2 10  1  0  0  0
  3 11  1  0  0  0
  3 12  1  0  0  0
  4 13  1  0  0  0
  4 14  1  0  0  0
  5 15  1  0  0  0
  5 16  1  0  0  0
  5 17  1  0  0  0
 18 19  2  0  0  0
 19 20  1  0  0  0
 20 21  2  0  0  0
 21 22  1  0  0  0
 22 23  1  0  0  0
 22 24  1  0  0  0
 24 25  2  0  0  0
 24 26  1  0  0  0
 26 27  1  0  0  0
 19 26  1  0  0  0
 20 28  1  0  0  0
 21 29  1  0  0  0
M  END
$$$$
