


 29 28  0  0  1  0            999 V2000
    1.1563    2.3590    4.2337 C   0  0  0  0  0  0
    1.2293    0.8401    4.3232 C   0  0  0  0  0  0
   -0.1355    0.1819    4.1684 C   0  0  0  0  0  0
   -0.0792   -1.3388    4.2280 C   0  0  0  0  0  0
   -1.4485   -1.9806    4.0442 C   0  0  0  0  0  0
    0.7254    2.6700    3.2809 H   0  0  0  0  0  0
    0.5220    2.7644    5.0219 H   0  0  0  0  0  0
    2.1391    2.8194    4.3268 H   0  0  0  0  0  0
    1.6597    0.5505    5.2845 H   0  0  0  0  0  0
    1.9039    0.4489    3.5581 H   0  0  0  0  0  0
   -0.8068    0.5508    4.9500 H   0  0  0  0  0  0
   -0.5830    0.4922    3.2185 H   0  0  0  0  0  0
    0.3444   -1.6412    5.1887 H   0  0  0  0  0  0
    0.6123   -1.7006    3.4635 H   0  0  0  0  0  0
   -1.8869   -1.7072    3.0840 H   0  0  0  0  0  0
   -1.3916   -3.0674    4.0883 H   0  0  0  0  0  0
   -2.1365   -1.6523    4.8235 H   0  0  0  0  0  0
   -2.4612   -1.0108    0.1979 O   0  0  0  0  0  0
   -1.4463   -0.3446    0.3067 C   0  0  0  0  0  0
   -1.3578    1.1032    0.2281 C   0  0  0  0  0  0
   -0.1630    1.7099    0.3811 C   0  0  0  0  0  0
    0.9855    1.0008    0.6112 N   0  0  0  0  0  0
    1.8676    1.4669    0.7448 H   0  0  0  0  0  0
    1.0270   -0.3792    0.7127 C   0  0  0  0  0  0
    2.0492   -0.9974    0.9373 O   0  0  0  0  0  0
   -0.2089   -0.9646    0.5348 N   0  0  0  0  0  0
   -0.2242   -1.9731    0.6051 H   0  0  0  0  0  0
   -2.2566    1.6677    0.0498 H   0  0  0  0  0  0
   -0.0463    2.7824    0.3334 H   0  0  0  0  0  0
  1  2  1  0  0  0
  2  3  1  0  0  0
  3  4  1  0  0  0
  4  5  1  0  0  0
  1  6  1  0  0  0
  1  7  1  0  0  0
  1  8  1  0  0  0
  2  9  1  0  0  0
  2 10  1  0  0  0
  3 11  1  0  0  0
  3 12  1  0  0  0
  4 13  1  0  0  0
  4 14  1  0  0  0
  5 15  1  0  0  0
  5 16  1  0  0  0
  5 17  1  0  0  0
 18 19  2  0  0  0
 19 20  1  0  0  0
 20 21  2  0  0  0
 21 22  1  0  0  0
 22 23  1  0  0  0
 22 24  1  0  0  0
 24 25  2  0  0  0
 24 26  1  0  0  0
 26 27  1  0  0  0
 19 26  1  0  0  0
 20 28  1  0  0  0
 21 29  1  0  0  0
M  END
$$$$
