


 29 28  0  0  1  0            999 V2000
   -2.0585    0.7046    5.2773 C   0  0  0  0  0  0
   -0.7418   -0.0367    5.0625 C   0  0  0  0  0  0
   -0.1263   -0.3902    6.4138 C   0  0  0  0  0  0
    0.2234    0.8568    4.2867 C   0  0  0  0  0  0
   -1.0031   -1.3168    4.2721 C   0  0  0  0  0  0
   -2.7656    0.0864    5.8322 H   0  0  0  0  0  0
   -1.8990    1.6248    5.8415 H   0  0  0  0  0  0
   -2.5162    0.9661    4.3222 H   0  0  0  0  0  0
    0.8168   -0.9225    6.2830 H   0  0  0  0  0  0
    0.0707    0.5096    6.9986 H   0  0  0  0  0  0
   -0.7976   -1.0279    6.9905 H   0  0  0  0  0  0
    1.1719    0.3442    4.1163 H   0  0  0  0  0  0
    0.4287    1.7749    4.8401 H   0  0  0  0  0  0
   -0.1990    1.1352    3.3192 H   0  0  0  0  0  0
   -1.4668   -1.0949    3.3095 H   0  0  0  0  0  0
   -0.0705   -1.8551    4.0925 H   0  0  0  0  0  0
   -1.6736   -1.9786    4.8223 H   0  0  0  0  0  0
   -1.5308   -0.5884    0.1236 O   0  0  0  0  0  0
   -0.4325   -0.0873    0.2947 C   0  0  0  0  0  0
   -0.0669    1.2913    0.0196 C   0  0  0  0  0  0
    1.1835    1.7179    0.2905 C   0  0  0  0  0  0
    2.1341    0.8866    0.8191 N   0  0  0  0  0  0
    3.0553    1.2239    1.0434 H   0  0  0  0  0  0
    1.9028   -0.4432    1.1283 C   0  0  0  0  0  0
    2.7438   -1.1639    1.6286 O   0  0  0  0  0  0
    0.6261   -0.8509    0.8059 N   0  0  0  0  0  0
    0.4092   -1.8115    1.0344 H   0  0  0  0  0  0
   -0.8097    1.9518   -0.3928 H   0  0  0  0  0  0
    1.5019    2.7339    0.1098 H   0  0  0  0  0  0
  1  2  1  0  0  0
  2  3  1  0  0  0
  2  4  1  0  0  0
  2  5  1  0  0  0
  1  6  1  0  0  0
  1  7  1  0  0  0
  1  8  1  0  0  0
  3  9  1  0  0  0
  3 10  1  0  0  0
  3 11  1  0  0  0
  4 12  1  0  0  0
  4 13  1  0  0  0
  4 14  1  0  0  0
  5 15  1  0  0  0
  5 16  1  0  0  0
  5 17  1  0  0  0
 18 19  2  0  0  0
 19 20  1  0  0  0
 20 21  2  0  0  0
 21 22  1  0  0  0
 22 23  1  0  0  0
 22 24  1  0  0  0
 24 25  2  0  0  0
 24 26  1  0  0  0
 26 27  1  0  0  0
 19 26  1  0  0  0
 20 28  1  0  0  0
 21 29  1  0  0  0
M  END
$$$$
