


 29 28  0  0  1  0            999 V2000
   -2.4558    0.6810    6.3898 C   0  0  0  0  0  0
   -1.1390   -0.0602    6.1750 C   0  0  0  0  0  0
   -0.5236   -0.4137    7.5262 C   0  0  0  0  0  0
   -0.1739    0.8332    5.3992 C   0  0  0  0  0  0
   -1.4003   -1.3403    5.3846 C   0  0  0  0  0  0
   -3.1628    0.0628    6.9447 H   0  0  0  0  0  0
   -2.2963    1.6012    6.9540 H   0  0  0  0  0  0
   -2.9135    0.9425    5.4347 H   0  0  0  0  0  0
    0.4196   -0.9461    7.3955 H   0  0  0  0  0  0
   -0.3266    0.4861    8.1110 H   0  0  0  0  0  0
   -1.1949   -1.0514    8.1030 H   0  0  0  0  0  0
    0.7747    0.3206    5.2288 H   0  0  0  0  0  0
    0.0314    1.7514    5.9526 H   0  0  0  0  0  0
   -0.5963    1.1117    4.4317 H   0  0  0  0  0  0
   -1.8641   -1.1185    4.4220 H   0  0  0  0  0  0
   -0.4678   -1.8787    5.2050 H   0  0  0  0  0  0
   -2.0708   -2.0021    5.9348 H   0  0  0  0  0  0
   -1.5308   -0.5884    0.1236 O   0  0  0  0  0  0
   -0.4325   -0.0873    0.2947 C   0  0  0  0  0  0
   -0.0669    1.2913    0.0196 C   0  0  0  0  0  0
    1.1835    1.7179    0.2905 C   0  0  0  0  0  0
    2.1341    0.8866    0.8191 N   0  0  0  0  0  0
    3.0553    1.2239    1.0434 H   0  0  0  0  0  0
    1.9028   -0.4432    1.1283 C   0  0  0  0  0  0
    2.7438   -1.1639    1.6286 O   0  0  0  0  0  0
    0.6261   -0.8509    0.8059 N   0  0  0  0  0  0
    0.4092   -1.8115    1.0344 H   0  0  0  0  0  0
   -0.8097    1.9518   -0.3928 H   0  0  0  0  0  0
    1.5019    2.7339    0.1098 H   0  0  0  0  0  0
  1  2  1  0  0  0
  2  3  1  0  0  0
  2  4  1  0  0  0
  2  5  1  0  0  0
  1  6  1  0  0  0
  1  7  1  0  0  0
  1  8  1  0  0  0
  3  9  1  0  0  0
  3 10  1  0  0  0
  3 11  1  0  0  0
  4 12  1  0  0  0
  4 13  1  0  0  0
  4 14  1  0  0  0
  5 15  1  0  0  0
  5 16  1  0  0  0
  5 17  1  0  0  0
 18 19  2  0  0  0
 19 20  1  0  0  0
 20 21  2  0  0  0
 21 22  1  0  0  0
 22 23  1  0  0  0
 22 24  1  0  0  0
 24 25  2  0  0  0
 24 26  1  0  0  0
 26 27  1  0  0  0
 19 26  1  0  0  0
 20 28  1  0  0  0
 21 29  1  0  0  0
M  END
$$$$
