


 29 28  0  0  1  0            999 V2000
   -2.0072    0.7076    5.1338 C   0  0  0  0  0  0
   -0.6905   -0.0337    4.9189 C   0  0  0  0  0  0
   -0.0750   -0.3871    6.2702 C   0  0  0  0  0  0
    0.2746    0.8598    4.1431 C   0  0  0  0  0  0
   -0.9518   -1.3137    4.1285 C   0  0  0  0  0  0
   -2.7143    0.0894    5.6886 H   0  0  0  0  0  0
   -1.8477    1.6278    5.6979 H   0  0  0  0  0  0
   -2.4649    0.9691    4.1786 H   0  0  0  0  0  0
    0.8681   -0.9195    6.1394 H   0  0  0  0  0  0
    0.1220    0.5126    6.8550 H   0  0  0  0  0  0
   -0.7463   -1.0249    6.8469 H   0  0  0  0  0  0
    1.2232    0.3472    3.9727 H   0  0  0  0  0  0
    0.4799    1.7779    4.6965 H   0  0  0  0  0  0
   -0.1478    1.1383    3.1756 H   0  0  0  0  0  0
   -1.4155   -1.0919    3.1659 H   0  0  0  0  0  0
   -0.0192   -1.8521    3.9489 H   0  0  0  0  0  0
   -1.6223   -1.9755    4.6787 H   0  0  0  0  0  0
   -1.5308   -0.5884    0.1236 O   0  0  0  0  0  0
   -0.4325   -0.0873    0.2947 C   0  0  0  0  0  0
   -0.0669    1.2913    0.0196 C   0  0  0  0  0  0
    1.1835    1.7179    0.2905 C   0  0  0  0  0  0
    2.1341    0.8866    0.8191 N   0  0  0  0  0  0
    3.0553    1.2239    1.0434 H   0  0  0  0  0  0
    1.9028   -0.4432    1.1283 C   0  0  0  0  0  0
    2.7438   -1.1639    1.6286 O   0  0  0  0  0  0
    0.6261   -0.8509    0.8059 N   0  0  0  0  0  0
    0.4092   -1.8115    1.0344 H   0  0  0  0  0  0
   -0.8097    1.9518   -0.3928 H   0  0  0  0  0  0
    1.5019    2.7339    0.1098 H   0  0  0  0  0  0
  1  2  1  0  0  0
  2  3  1  0  0  0
  2  4  1  0  0  0
  2  5  1  0  0  0
  1  6  1  0  0  0
  1  7  1  0  0  0
  1  8  1  0  0  0
  3  9  1  0  0  0
  3 10  1  0  0  0
  3 11  1  0  0  0
  4 12  1  0  0  0
  4 13  1  0  0  0
  4 14  1  0  0  0
  5 15  1  0  0  0
  5 16  1  0  0  0
  5 17  1  0  0  0
 18 19  2  0  0  0
 19 20  1  0  0  0
 20 21  2  0  0  0
 21 22  1  0  0  0
 22 23  1  0  0  0
 22 24  1  0  0  0
 24 25  2  0  0  0
 24 26  1  0  0  0
 26 27  1  0  0  0
 19 26  1  0  0  0
 20 28  1  0  0  0
 21 29  1  0  0  0
M  END
$$$$
