


 29 28  0  0  1  0            999 V2000
   -2.9367    0.6525    7.7367 C   0  0  0  0  0  0
   -1.6200   -0.0887    7.5218 C   0  0  0  0  0  0
   -1.0045   -0.4422    8.8731 C   0  0  0  0  0  0
   -0.6549    0.8047    6.7460 C   0  0  0  0  0  0
   -1.8813   -1.3688    6.7314 C   0  0  0  0  0  0
   -3.6438    0.0343    8.2915 H   0  0  0  0  0  0
   -2.7772    1.5727    8.3008 H   0  0  0  0  0  0
   -3.3944    0.9140    6.7815 H   0  0  0  0  0  0
   -0.0614   -0.9746    8.7423 H   0  0  0  0  0  0
   -0.8075    0.4576    9.4579 H   0  0  0  0  0  0
   -1.6758   -1.0799    9.4498 H   0  0  0  0  0  0
    0.2937    0.2921    6.5757 H   0  0  0  0  0  0
   -0.4496    1.7229    7.2994 H   0  0  0  0  0  0
   -1.0773    1.0832    5.7785 H   0  0  0  0  0  0
   -2.3450   -1.1469    5.7688 H   0  0  0  0  0  0
   -0.9487   -1.9072    6.5518 H   0  0  0  0  0  0
   -2.5518   -2.0306    7.2816 H   0  0  0  0  0  0
   -1.5308   -0.5884    0.1236 O   0  0  0  0  0  0
   -0.4325   -0.0873    0.2947 C   0  0  0  0  0  0
   -0.0669    1.2913    0.0196 C   0  0  0  0  0  0
    1.1835    1.7179    0.2905 C   0  0  0  0  0  0
    2.1341    0.8866    0.8191 N   0  0  0  0  0  0
    3.0553    1.2239    1.0434 H   0  0  0  0  0  0
    1.9028   -0.4432    1.1283 C   0  0  0  0  0  0
    2.7438   -1.1639    1.6286 O   0  0  0  0  0  0
    0.6261   -0.8509    0.8059 N   0  0  0  0  0  0
    0.4092   -1.8115    1.0344 H   0  0  0  0  0  0
   -0.8097    1.9518   -0.3928 H   0  0  0  0  0  0
    1.5019    2.7339    0.1098 H   0  0  0  0  0  0
  1  2  1  0  0  0
  2  3  1  0  0  0
  2  4  1  0  0  0
  2  5  1  0  0  0
  1  6  1  0  0  0
  1  7  1  0  0  0
  1  8  1  0  0  0
  3  9  1  0  0  0
  3 10  1  0  0  0
  3 11  1  0  0  0
  4 12  1  0  0  0
  4 13  1  0  0  0
  4 14  1  0  0  0
  5 15  1  0  0  0
  5 16  1  0  0  0
  5 17  1  0  0  0
 18 19  2  0  0  0
 19 20  1  0  0  0
 20 21  2  0  0  0
 21 22  1  0  0  0
 22 23  1  0  0  0
 22 24  1  0  0  0
 24 25  2  0  0  0
 24 26  1  0  0  0
 26 27  1  0  0  0
 19 26  1  0  0  0
 20 28  1  0  0  0
 21 29  1  0  0  0
M  END
$$$$
