


 29 28  0  0  1  0            999 V2000
   -1.9028    0.7138    4.8414 C   0  0  0  0  0  0
   -0.5861   -0.0275    4.6265 C   0  0  0  0  0  0
    0.0294   -0.3809    5.9778 C   0  0  0  0  0  0
    0.3790    0.8660    3.8507 C   0  0  0  0  0  0
   -0.8474   -1.3075    3.8361 C   0  0  0  0  0  0
   -2.6099    0.0956    5.3962 H   0  0  0  0  0  0
   -1.7433    1.6340    5.4056 H   0  0  0  0  0  0
   -2.3605    0.9753    3.8862 H   0  0  0  0  0  0
    0.9725   -0.9133    5.8470 H   0  0  0  0  0  0
    0.2264    0.5188    6.5626 H   0  0  0  0  0  0
   -0.6419   -1.0187    6.5545 H   0  0  0  0  0  0
    1.3276    0.3534    3.6804 H   0  0  0  0  0  0
    0.5843    1.7841    4.4042 H   0  0  0  0  0  0
   -0.0433    1.1445    2.8833 H   0  0  0  0  0  0
   -1.3111   -1.0857    2.8735 H   0  0  0  0  0  0
    0.0852   -1.8459    3.6565 H   0  0  0  0  0  0
   -1.5179   -1.9693    4.3863 H   0  0  0  0  0  0
   -1.5308   -0.5884    0.1236 O   0  0  0  0  0  0
   -0.4325   -0.0873    0.2947 C   0  0  0  0  0  0
   -0.0669    1.2913    0.0196 C   0  0  0  0  0  0
    1.1835    1.7179    0.2905 C   0  0  0  0  0  0
    2.1341    0.8866    0.8191 N   0  0  0  0  0  0
    3.0553    1.2239    1.0434 H   0  0  0  0  0  0
    1.9028   -0.4432    1.1283 C   0  0  0  0  0  0
    2.7438   -1.1639    1.6286 O   0  0  0  0  0  0
    0.6261   -0.8509    0.8059 N   0  0  0  0  0  0
    0.4092   -1.8115    1.0344 H   0  0  0  0  0  0
   -0.8097    1.9518   -0.3928 H   0  0  0  0  0  0
    1.5019    2.7339    0.1098 H   0  0  0  0  0  0
  1  2  1  0  0  0
  2  3  1  0  0  0
  2  4  1  0  0  0
  2  5  1  0  0  0
  1  6  1  0  0  0
  1  7  1  0  0  0
  1  8  1  0  0  0
  3  9  1  0  0  0
  3 10  1  0  0  0
  3 11  1  0  0  0
  4 12  1  0  0  0
  4 13  1  0  0  0
  4 14  1  0  0  0
  5 15  1  0  0  0
  5 16  1  0  0  0
  5 17  1  0  0  0
 18 19  2  0  0  0
 19 20  1  0  0  0
 20 21  2  0  0  0
 21 22  1  0  0  0
 22 23  1  0  0  0
 22 24  1  0  0  0
 24 25  2  0  0  0
 24 26  1  0  0  0
 26 27  1  0  0  0
 19 26  1  0  0  0
 20 28  1  0  0  0
 21 29  1  0  0  0
M  END
$$$$
