


 29 28  0  0  1  0            999 V2000
   -1.9553    0.7107    4.9885 C   0  0  0  0  0  0
   -0.6386   -0.0306    4.7736 C   0  0  0  0  0  0
   -0.0232   -0.3840    6.1249 C   0  0  0  0  0  0
    0.3265    0.8629    3.9978 C   0  0  0  0  0  0
   -0.8999   -1.3106    3.9832 C   0  0  0  0  0  0
   -2.6624    0.0925    5.5433 H   0  0  0  0  0  0
   -1.7958    1.6309    5.5526 H   0  0  0  0  0  0
   -2.4130    0.9722    4.0333 H   0  0  0  0  0  0
    0.9200   -0.9164    5.9941 H   0  0  0  0  0  0
    0.1739    0.5157    6.7097 H   0  0  0  0  0  0
   -0.6945   -1.0218    6.7016 H   0  0  0  0  0  0
    1.2751    0.3503    3.8274 H   0  0  0  0  0  0
    0.5318    1.7810    4.5512 H   0  0  0  0  0  0
   -0.0959    1.1414    3.0303 H   0  0  0  0  0  0
   -1.3636   -1.0888    3.0206 H   0  0  0  0  0  0
    0.0327   -1.8490    3.8036 H   0  0  0  0  0  0
   -1.5704   -1.9725    4.5334 H   0  0  0  0  0  0
   -1.5308   -0.5884    0.1236 O   0  0  0  0  0  0
   -0.4325   -0.0873    0.2947 C   0  0  0  0  0  0
   -0.0669    1.2913    0.0196 C   0  0  0  0  0  0
    1.1835    1.7179    0.2905 C   0  0  0  0  0  0
    2.1341    0.8866    0.8191 N   0  0  0  0  0  0
    3.0553    1.2239    1.0434 H   0  0  0  0  0  0
    1.9028   -0.4432    1.1283 C   0  0  0  0  0  0
    2.7438   -1.1639    1.6286 O   0  0  0  0  0  0
    0.6261   -0.8509    0.8059 N   0  0  0  0  0  0
    0.4092   -1.8115    1.0344 H   0  0  0  0  0  0
   -0.8097    1.9518   -0.3928 H   0  0  0  0  0  0
    1.5019    2.7339    0.1098 H   0  0  0  0  0  0
  1  2  1  0  0  0
  2  3  1  0  0  0
  2  4  1  0  0  0
  2  5  1  0  0  0
  1  6  1  0  0  0
  1  7  1  0  0  0
  1  8  1  0  0  0
  3  9  1  0  0  0
  3 10  1  0  0  0
  3 11  1  0  0  0
  4 12  1  0  0  0
  4 13  1  0  0  0
  4 14  1  0  0  0
  5 15  1  0  0  0
  5 16  1  0  0  0
  5 17  1  0  0  0
 18 19  2  0  0  0
 19 20  1  0  0  0
 20 21  2  0  0  0
 21 22  1  0  0  0
 22 23  1  0  0  0
 22 24  1  0  0  0
 24 25  2  0  0  0
 24 26  1  0  0  0
 26 27  1  0  0  0
 19 26  1  0  0  0
 20 28  1  0  0  0
 21 29  1  0  0  0
M  END
$$$$
