


 29 28  0  0  1  0            999 V2000
   -1.8494    0.7170    4.6919 C   0  0  0  0  0  0
   -0.5327   -0.0243    4.4770 C   0  0  0  0  0  0
    0.0828   -0.3778    5.8282 C   0  0  0  0  0  0
    0.4324    0.8691    3.7012 C   0  0  0  0  0  0
   -0.7940   -1.3044    3.6866 C   0  0  0  0  0  0
   -2.5565    0.0988    5.2467 H   0  0  0  0  0  0
   -1.6899    1.6372    5.2560 H   0  0  0  0  0  0
   -2.3071    0.9785    3.7367 H   0  0  0  0  0  0
    1.0259   -0.9101    5.6975 H   0  0  0  0  0  0
    0.2798    0.5220    6.4131 H   0  0  0  0  0  0
   -0.5885   -1.0155    6.4050 H   0  0  0  0  0  0
    1.3810    0.3566    3.5308 H   0  0  0  0  0  0
    0.6377    1.7873    4.2546 H   0  0  0  0  0  0
    0.0101    1.1476    2.7337 H   0  0  0  0  0  0
   -1.2577   -1.0825    2.7240 H   0  0  0  0  0  0
    0.1386   -1.8428    3.5070 H   0  0  0  0  0  0
   -1.4645   -1.9662    4.2368 H   0  0  0  0  0  0
   -1.5308   -0.5884    0.1236 O   0  0  0  0  0  0
   -0.4325   -0.0873    0.2947 C   0  0  0  0  0  0
   -0.0669    1.2913    0.0196 C   0  0  0  0  0  0
    1.1835    1.7179    0.2905 C   0  0  0  0  0  0
    2.1341    0.8866    0.8191 N   0  0  0  0  0  0
    3.0553    1.2239    1.0434 H   0  0  0  0  0  0
    1.9028   -0.4432    1.1283 C   0  0  0  0  0  0
    2.7438   -1.1639    1.6286 O   0  0  0  0  0  0
    0.6261   -0.8509    0.8059 N   0  0  0  0  0  0
    0.4092   -1.8115    1.0344 H   0  0  0  0  0  0
   -0.8097    1.9518   -0.3928 H   0  0  0  0  0  0
    1.5019    2.7339    0.1098 H   0  0  0  0  0  0
  1  2  1  0  0  0
  2  3  1  0  0  0
  2  4  1  0  0  0
  2  5  1  0  0  0
  1  6  1  0  0  0
  1  7  1  0  0  0
  1  8  1  0  0  0
  3  9  1  0  0  0
  3 10  1  0  0  0
  3 11  1  0  0  0
  4 12  1  0  0  0
  4 13  1  0  0  0
  4 14  1  0  0  0
  5 15  1  0  0  0
  5 16  1  0  0  0
  5 17  1  0  0  0
 18 19  2  0  0  0
 19 20  1  0  0  0
 20 21  2  0  0  0
 21 22  1  0  0  0
 22 23  1  0  0  0
 22 24  1  0  0  0
 24 25  2  0  0  0
 24 26  1  0  0  0
 26 27  1  0  0  0
 19 26  1  0  0  0
 20 28  1  0  0  0
 21 29  1  0  0  0
M  END
$$$$
