


 29 28  0  0  1  0            999 V2000
   -2.2097    0.6956    5.7007 C   0  0  0  0  0  0
   -0.8929   -0.0457    5.4858 C   0  0  0  0  0  0
   -0.2775   -0.3991    6.8371 C   0  0  0  0  0  0
    0.0722    0.8478    4.7100 C   0  0  0  0  0  0
   -1.1542   -1.3257    4.6954 C   0  0  0  0  0  0
   -2.9167    0.0774    6.2555 H   0  0  0  0  0  0
   -2.0502    1.6158    6.2649 H   0  0  0  0  0  0
   -2.6674    0.9571    4.7455 H   0  0  0  0  0  0
    0.6657   -0.9315    6.7063 H   0  0  0  0  0  0
   -0.0805    0.5006    7.4219 H   0  0  0  0  0  0
   -0.9488   -1.0368    7.4138 H   0  0  0  0  0  0
    1.0208    0.3352    4.5397 H   0  0  0  0  0  0
    0.2775    1.7659    5.2634 H   0  0  0  0  0  0
   -0.3502    1.1263    3.7425 H   0  0  0  0  0  0
   -1.6180   -1.1039    3.7328 H   0  0  0  0  0  0
   -0.2217   -1.8641    4.5158 H   0  0  0  0  0  0
   -1.8247   -1.9875    5.2456 H   0  0  0  0  0  0
   -1.5308   -0.5884    0.1236 O   0  0  0  0  0  0
   -0.4325   -0.0873    0.2947 C   0  0  0  0  0  0
   -0.0669    1.2913    0.0196 C   0  0  0  0  0  0
    1.1835    1.7179    0.2905 C   0  0  0  0  0  0
    2.1341    0.8866    0.8191 N   0  0  0  0  0  0
    3.0553    1.2239    1.0434 H   0  0  0  0  0  0
    1.9028   -0.4432    1.1283 C   0  0  0  0  0  0
    2.7438   -1.1639    1.6286 O   0  0  0  0  0  0
    0.6261   -0.8509    0.8059 N   0  0  0  0  0  0
    0.4092   -1.8115    1.0344 H   0  0  0  0  0  0
   -0.8097    1.9518   -0.3928 H   0  0  0  0  0  0
    1.5019    2.7339    0.1098 H   0  0  0  0  0  0
  1  2  1  0  0  0
  2  3  1  0  0  0
  2  4  1  0  0  0
  2  5  1  0  0  0
  1  6  1  0  0  0
  1  7  1  0  0  0
  1  8  1  0  0  0
  3  9  1  0  0  0
  3 10  1  0  0  0
  3 11  1  0  0  0
  4 12  1  0  0  0
  4 13  1  0  0  0
  4 14  1  0  0  0
  5 15  1  0  0  0
  5 16  1  0  0  0
  5 17  1  0  0  0
 18 19  2  0  0  0
 19 20  1  0  0  0
 20 21  2  0  0  0
 21 22  1  0  0  0
 22 23  1  0  0  0
 22 24  1  0  0  0
 24 25  2  0  0  0
 24 26  1  0  0  0
 26 27  1  0  0  0
 19 26  1  0  0  0
 20 28  1  0  0  0
 21 29  1  0  0  0
M  END
$$$$
