


 16 15  0  0  1  0            999 V2000
    0.7084   -0.1722    3.2871 C   0  0  0  0  0  0
   -0.4362    0.2142    3.3933 C   0  0  0  0  0  0
    1.7042   -0.5262    3.1729 H   0  0  0  0  0  0
   -1.4411    0.5429    3.4936 H   0  0  0  0  0  0
   -2.3289   -1.0079   -0.1231 O   0  0  0  0  0  0
   -1.3140   -0.3351   -0.0646 C   0  0  0  0  0  0
   -1.2484    1.1161   -0.0665 C   0  0  0  0  0  0
   -0.0531    1.7314    0.0342 C   0  0  0  0  0  0
    1.1159    1.0276    0.1352 N   0  0  0  0  0  0
    1.9967    1.4973    0.2616 H   0  0  0  0  0  0
    1.1753   -0.3538    0.1762 C   0  0  0  0  0  0
    2.2146   -0.9665    0.3352 O   0  0  0  0  0  0
   -0.0554   -0.9480    0.0100 N   0  0  0  0  0  0
   -0.0573   -1.9577    0.0551 H   0  0  0  0  0  0
   -2.1644    1.6753   -0.1471 H   0  0  0  0  0  0
    0.0481    2.8064    0.0434 H   0  0  0  0  0  0
  1  2  3  0  0  0
  1  3  1  0  0  0
  2  4  1  0  0  0
  5  6  2  0  0  0
  6  7  1  0  0  0
  7  8  2  0  0  0
  8  9  1  0  0  0
  9 10  1  0  0  0
  9 11  1  0  0  0
 11 12  2  0  0  0
 11 13  1  0  0  0
 13 14  1  0  0  0
  6 13  1  0  0  0
  7 15  1  0  0  0
  8 16  1  0  0  0
M  END
$$$$
