


 21 20  0  0  1  0            999 V2000
   -2.7382    1.2668   -0.1559 C   0  0  0  0  0  0
   -1.2327    1.2116   -0.1416 C   0  0  0  0  0  0
   -0.5713    2.2420    0.0256 O   0  0  0  0  0  0
   -0.6706    0.0039   -0.3143 N   0  0  0  0  0  0
   -3.0780    1.6466    0.8045 H   0  0  0  0  0  0
   -3.2021    0.3029   -0.3462 H   0  0  0  0  0  0
   -3.0500    1.9755   -0.9186 H   0  0  0  0  0  0
    0.3438   -0.0906   -0.3083 H   0  0  0  0  0  0
   -1.2442   -0.8063   -0.4467 H   0  0  0  0  0  0
    6.1331    2.1634    0.0147 O   0  0  0  0  0  0
    4.9176    2.2590    0.0299 C   0  0  0  0  0  0
    4.1450    3.4744    0.1931 C   0  0  0  0  0  0
    2.7958    3.4127    0.1874 C   0  0  0  0  0  0
    2.1107    2.2404    0.0328 N   0  0  0  0  0  0
    1.0780    2.2313    0.0320 H   0  0  0  0  0  0
    2.7416    1.0359   -0.1294 C   0  0  0  0  0  0
    2.1444   -0.0280   -0.2713 O   0  0  0  0  0  0
    4.1139    1.1162   -0.1206 N   0  0  0  0  0  0
    4.6040    0.2403   -0.2385 H   0  0  0  0  0  0
    4.6667    4.4076    0.3161 H   0  0  0  0  0  0
    2.1754    4.2891    0.3051 H   0  0  0  0  0  0
  1  2  1  0  0  0
  2  3  2  0  0  0
  2  4  1  0  0  0
  1  5  1  0  0  0
  1  6  1  0  0  0
  1  7  1  0  0  0
  4  8  1  0  0  0
  4  9  1  0  0  0
 10 11  2  0  0  0
 11 12  1  0  0  0
 12 13  2  0  0  0
 13 14  1  0  0  0
 14 15  1  0  0  0
 14 16  1  0  0  0
 16 17  2  0  0  0
 16 18  1  0  0  0
 18 19  1  0  0  0
 11 18  1  0  0  0
 12 20  1  0  0  0
 13 21  1  0  0  0
M  END
$$$$
