


 21 20  0  0  1  0            999 V2000
   -2.7382    1.2668   -0.1559 C   0  0  0  0  0  0
   -1.2327    1.2116   -0.1416 C   0  0  0  0  0  0
   -0.5713    2.2420    0.0256 O   0  0  0  0  0  0
   -0.6706    0.0039   -0.3143 N   0  0  0  0  0  0
   -3.0780    1.6466    0.8045 H   0  0  0  0  0  0
   -3.2021    0.3029   -0.3462 H   0  0  0  0  0  0
   -3.0500    1.9755   -0.9186 H   0  0  0  0  0  0
    0.3438   -0.0906   -0.3083 H   0  0  0  0  0  0
   -1.2442   -0.8063   -0.4467 H   0  0  0  0  0  0
    6.2198    2.1647    0.0158 O   0  0  0  0  0  0
    5.0043    2.2604    0.0310 C   0  0  0  0  0  0
    4.2317    3.4757    0.1942 C   0  0  0  0  0  0
    2.8825    3.4140    0.1885 C   0  0  0  0  0  0
    2.1974    2.2417    0.0339 N   0  0  0  0  0  0
    1.1646    2.2327    0.0331 H   0  0  0  0  0  0
    2.8283    1.0373   -0.1284 C   0  0  0  0  0  0
    2.2311   -0.0267   -0.2702 O   0  0  0  0  0  0
    4.2007    1.1175   -0.1195 N   0  0  0  0  0  0
    4.6907    0.2415   -0.2374 H   0  0  0  0  0  0
    4.7534    4.4089    0.3172 H   0  0  0  0  0  0
    2.2621    4.2904    0.3061 H   0  0  0  0  0  0
  1  2  1  0  0  0
  2  3  2  0  0  0
  2  4  1  0  0  0
  1  5  1  0  0  0
  1  6  1  0  0  0
  1  7  1  0  0  0
  4  8  1  0  0  0
  4  9  1  0  0  0
 10 11  2  0  0  0
 11 12  1  0  0  0
 12 13  2  0  0  0
 13 14  1  0  0  0
 14 15  1  0  0  0
 14 16  1  0  0  0
 16 17  2  0  0  0
 16 18  1  0  0  0
 18 19  1  0  0  0
 11 18  1  0  0  0
 12 20  1  0  0  0
 13 21  1  0  0  0
M  END
$$$$
