


 21 20  0  0  1  0            999 V2000
   -2.7382    1.2668   -0.1559 C   0  0  0  0  0  0
   -1.2327    1.2116   -0.1416 C   0  0  0  0  0  0
   -0.5713    2.2420    0.0256 O   0  0  0  0  0  0
   -0.6706    0.0039   -0.3143 N   0  0  0  0  0  0
   -3.0780    1.6466    0.8045 H   0  0  0  0  0  0
   -3.2021    0.3029   -0.3462 H   0  0  0  0  0  0
   -3.0500    1.9755   -0.9186 H   0  0  0  0  0  0
    0.3438   -0.0906   -0.3083 H   0  0  0  0  0  0
   -1.2442   -0.8063   -0.4467 H   0  0  0  0  0  0
    6.0463    2.1621    0.0136 O   0  0  0  0  0  0
    4.8308    2.2577    0.0288 C   0  0  0  0  0  0
    4.0582    3.4731    0.1920 C   0  0  0  0  0  0
    2.7090    3.4114    0.1863 C   0  0  0  0  0  0
    2.0239    2.2391    0.0317 N   0  0  0  0  0  0
    0.9911    2.2300    0.0309 H   0  0  0  0  0  0
    2.6548    1.0346   -0.1305 C   0  0  0  0  0  0
    2.0576   -0.0293   -0.2723 O   0  0  0  0  0  0
    4.0271    1.1149   -0.1217 N   0  0  0  0  0  0
    4.5172    0.2389   -0.2396 H   0  0  0  0  0  0
    4.5799    4.4062    0.3150 H   0  0  0  0  0  0
    2.0886    4.2877    0.3040 H   0  0  0  0  0  0
  1  2  1  0  0  0
  2  3  2  0  0  0
  2  4  1  0  0  0
  1  5  1  0  0  0
  1  6  1  0  0  0
  1  7  1  0  0  0
  4  8  1  0  0  0
  4  9  1  0  0  0
 10 11  2  0  0  0
 11 12  1  0  0  0
 12 13  2  0  0  0
 13 14  1  0  0  0
 14 15  1  0  0  0
 14 16  1  0  0  0
 16 17  2  0  0  0
 16 18  1  0  0  0
 18 19  1  0  0  0
 11 18  1  0  0  0
 12 20  1  0  0  0
 13 21  1  0  0  0
M  END
$$$$
