


 21 20  0  0  1  0            999 V2000
   -2.7382    1.2668   -0.1559 C   0  0  0  0  0  0
   -1.2327    1.2116   -0.1416 C   0  0  0  0  0  0
   -0.5713    2.2420    0.0256 O   0  0  0  0  0  0
   -0.6706    0.0039   -0.3143 N   0  0  0  0  0  0
   -3.0780    1.6466    0.8045 H   0  0  0  0  0  0
   -3.2021    0.3029   -0.3462 H   0  0  0  0  0  0
   -3.0500    1.9755   -0.9186 H   0  0  0  0  0  0
    0.3438   -0.0906   -0.3083 H   0  0  0  0  0  0
   -1.2442   -0.8063   -0.4467 H   0  0  0  0  0  0
    6.6539    2.1713    0.0213 O   0  0  0  0  0  0
    5.4384    2.2669    0.0365 C   0  0  0  0  0  0
    4.6658    3.4822    0.1996 C   0  0  0  0  0  0
    3.3166    3.4205    0.1939 C   0  0  0  0  0  0
    2.6315    2.2483    0.0394 N   0  0  0  0  0  0
    1.5987    2.2392    0.0385 H   0  0  0  0  0  0
    3.2624    1.0438   -0.1229 C   0  0  0  0  0  0
    2.6652   -0.0201   -0.2647 O   0  0  0  0  0  0
    4.6347    1.1240   -0.1140 N   0  0  0  0  0  0
    5.1248    0.2481   -0.2319 H   0  0  0  0  0  0
    5.1875    4.4154    0.3226 H   0  0  0  0  0  0
    2.6962    4.2969    0.3116 H   0  0  0  0  0  0
  1  2  1  0  0  0
  2  3  2  0  0  0
  2  4  1  0  0  0
  1  5  1  0  0  0
  1  6  1  0  0  0
  1  7  1  0  0  0
  4  8  1  0  0  0
  4  9  1  0  0  0
 10 11  2  0  0  0
 11 12  1  0  0  0
 12 13  2  0  0  0
 13 14  1  0  0  0
 14 15  1  0  0  0
 14 16  1  0  0  0
 16 17  2  0  0  0
 16 18  1  0  0  0
 18 19  1  0  0  0
 11 18  1  0  0  0
 12 20  1  0  0  0
 13 21  1  0  0  0
M  END
$$$$
