


 21 20  0  0  1  0            999 V2000
   -2.7382    1.2668   -0.1559 C   0  0  0  0  0  0
   -1.2327    1.2116   -0.1416 C   0  0  0  0  0  0
   -0.5713    2.2420    0.0256 O   0  0  0  0  0  0
   -0.6706    0.0039   -0.3143 N   0  0  0  0  0  0
   -3.0780    1.6466    0.8045 H   0  0  0  0  0  0
   -3.2021    0.3029   -0.3462 H   0  0  0  0  0  0
   -3.0500    1.9755   -0.9186 H   0  0  0  0  0  0
    0.3438   -0.0906   -0.3083 H   0  0  0  0  0  0
   -1.2442   -0.8063   -0.4467 H   0  0  0  0  0  0
    6.3935    2.1674    0.0180 O   0  0  0  0  0  0
    5.1780    2.2630    0.0332 C   0  0  0  0  0  0
    4.4054    3.4783    0.1963 C   0  0  0  0  0  0
    3.0562    3.4166    0.1907 C   0  0  0  0  0  0
    2.3712    2.2443    0.0361 N   0  0  0  0  0  0
    1.3384    2.2353    0.0353 H   0  0  0  0  0  0
    3.0020    1.0399   -0.1262 C   0  0  0  0  0  0
    2.4049   -0.0241   -0.2680 O   0  0  0  0  0  0
    4.3744    1.1201   -0.1173 N   0  0  0  0  0  0
    4.8644    0.2442   -0.2352 H   0  0  0  0  0  0
    4.9271    4.4115    0.3194 H   0  0  0  0  0  0
    2.4358    4.2930    0.3083 H   0  0  0  0  0  0
  1  2  1  0  0  0
  2  3  2  0  0  0
  2  4  1  0  0  0
  1  5  1  0  0  0
  1  6  1  0  0  0
  1  7  1  0  0  0
  4  8  1  0  0  0
  4  9  1  0  0  0
 10 11  2  0  0  0
 11 12  1  0  0  0
 12 13  2  0  0  0
 13 14  1  0  0  0
 14 15  1  0  0  0
 14 16  1  0  0  0
 16 17  2  0  0  0
 16 18  1  0  0  0
 18 19  1  0  0  0
 11 18  1  0  0  0
 12 20  1  0  0  0
 13 21  1  0  0  0
M  END
$$$$
