


 21 20  0  0  1  0            999 V2000
   -2.7382    1.2668   -0.1559 C   0  0  0  0  0  0
   -1.2327    1.2116   -0.1416 C   0  0  0  0  0  0
   -0.5713    2.2420    0.0256 O   0  0  0  0  0  0
   -0.6706    0.0039   -0.3143 N   0  0  0  0  0  0
   -3.0780    1.6466    0.8045 H   0  0  0  0  0  0
   -3.2021    0.3029   -0.3462 H   0  0  0  0  0  0
   -3.0500    1.9755   -0.9186 H   0  0  0  0  0  0
    0.3438   -0.0906   -0.3083 H   0  0  0  0  0  0
   -1.2442   -0.8063   -0.4467 H   0  0  0  0  0  0
    6.3067    2.1660    0.0169 O   0  0  0  0  0  0
    5.0912    2.2617    0.0321 C   0  0  0  0  0  0
    4.3186    3.4770    0.1953 C   0  0  0  0  0  0
    2.9694    3.4153    0.1896 C   0  0  0  0  0  0
    2.2843    2.2430    0.0350 N   0  0  0  0  0  0
    1.2516    2.2340    0.0342 H   0  0  0  0  0  0
    2.9152    1.0386   -0.1273 C   0  0  0  0  0  0
    2.3180   -0.0254   -0.2691 O   0  0  0  0  0  0
    4.2875    1.1188   -0.1184 N   0  0  0  0  0  0
    4.7776    0.2429   -0.2363 H   0  0  0  0  0  0
    4.8404    4.4102    0.3183 H   0  0  0  0  0  0
    2.3490    4.2917    0.3072 H   0  0  0  0  0  0
  1  2  1  0  0  0
  2  3  2  0  0  0
  2  4  1  0  0  0
  1  5  1  0  0  0
  1  6  1  0  0  0
  1  7  1  0  0  0
  4  8  1  0  0  0
  4  9  1  0  0  0
 10 11  2  0  0  0
 11 12  1  0  0  0
 12 13  2  0  0  0
 13 14  1  0  0  0
 14 15  1  0  0  0
 14 16  1  0  0  0
 16 17  2  0  0  0
 16 18  1  0  0  0
 18 19  1  0  0  0
 11 18  1  0  0  0
 12 20  1  0  0  0
 13 21  1  0  0  0
M  END
$$$$
