


 21 20  0  0  1  0            999 V2000
   -2.7382    1.2668   -0.1559 C   0  0  0  0  0  0
   -1.2327    1.2116   -0.1416 C   0  0  0  0  0  0
   -0.5713    2.2420    0.0256 O   0  0  0  0  0  0
   -0.6706    0.0039   -0.3143 N   0  0  0  0  0  0
   -3.0780    1.6466    0.8045 H   0  0  0  0  0  0
   -3.2021    0.3029   -0.3462 H   0  0  0  0  0  0
   -3.0500    1.9755   -0.9186 H   0  0  0  0  0  0
    0.3438   -0.0906   -0.3083 H   0  0  0  0  0  0
   -1.2442   -0.8063   -0.4467 H   0  0  0  0  0  0
    7.9558    2.1909    0.0377 O   0  0  0  0  0  0
    6.7402    2.2865    0.0529 C   0  0  0  0  0  0
    5.9676    3.5018    0.2160 C   0  0  0  0  0  0
    4.6185    3.4401    0.2103 C   0  0  0  0  0  0
    3.9334    2.2678    0.0558 N   0  0  0  0  0  0
    2.9006    2.2588    0.0549 H   0  0  0  0  0  0
    4.5643    1.0634   -0.1065 C   0  0  0  0  0  0
    3.9671   -0.0005   -0.2483 O   0  0  0  0  0  0
    5.9366    1.1436   -0.0976 N   0  0  0  0  0  0
    6.4266    0.2677   -0.2156 H   0  0  0  0  0  0
    6.4894    4.4350    0.3390 H   0  0  0  0  0  0
    3.9981    4.3165    0.3280 H   0  0  0  0  0  0
  1  2  1  0  0  0
  2  3  2  0  0  0
  2  4  1  0  0  0
  1  5  1  0  0  0
  1  6  1  0  0  0
  1  7  1  0  0  0
  4  8  1  0  0  0
  4  9  1  0  0  0
 10 11  2  0  0  0
 11 12  1  0  0  0
 12 13  2  0  0  0
 13 14  1  0  0  0
 14 15  1  0  0  0
 14 16  1  0  0  0
 16 17  2  0  0  0
 16 18  1  0  0  0
 18 19  1  0  0  0
 11 18  1  0  0  0
 12 20  1  0  0  0
 13 21  1  0  0  0
M  END
$$$$
