


 21 20  0  0  1  0            999 V2000
   -2.7382    1.2668   -0.1559 C   0  0  0  0  0  0
   -1.2327    1.2116   -0.1416 C   0  0  0  0  0  0
   -0.5713    2.2420    0.0256 O   0  0  0  0  0  0
   -0.6706    0.0039   -0.3143 N   0  0  0  0  0  0
   -3.0780    1.6466    0.8045 H   0  0  0  0  0  0
   -3.2021    0.3029   -0.3462 H   0  0  0  0  0  0
   -3.0500    1.9755   -0.9186 H   0  0  0  0  0  0
    0.3438   -0.0906   -0.3083 H   0  0  0  0  0  0
   -1.2442   -0.8063   -0.4467 H   0  0  0  0  0  0
    7.0879    2.1778    0.0268 O   0  0  0  0  0  0
    5.8723    2.2734    0.0419 C   0  0  0  0  0  0
    5.0998    3.4887    0.2051 C   0  0  0  0  0  0
    3.7506    3.4271    0.1994 C   0  0  0  0  0  0
    3.0655    2.2548    0.0448 N   0  0  0  0  0  0
    2.0327    2.2457    0.0440 H   0  0  0  0  0  0
    3.6964    1.0503   -0.1174 C   0  0  0  0  0  0
    3.0992   -0.0136   -0.2592 O   0  0  0  0  0  0
    5.0687    1.1306   -0.1085 N   0  0  0  0  0  0
    5.5587    0.2546   -0.2265 H   0  0  0  0  0  0
    5.6215    4.4219    0.3281 H   0  0  0  0  0  0
    3.1302    4.3034    0.3171 H   0  0  0  0  0  0
  1  2  1  0  0  0
  2  3  2  0  0  0
  2  4  1  0  0  0
  1  5  1  0  0  0
  1  6  1  0  0  0
  1  7  1  0  0  0
  4  8  1  0  0  0
  4  9  1  0  0  0
 10 11  2  0  0  0
 11 12  1  0  0  0
 12 13  2  0  0  0
 13 14  1  0  0  0
 14 15  1  0  0  0
 14 16  1  0  0  0
 16 17  2  0  0  0
 16 18  1  0  0  0
 18 19  1  0  0  0
 11 18  1  0  0  0
 12 20  1  0  0  0
 13 21  1  0  0  0
M  END
$$$$
