


  9  7  0  0  1  0            999 V2000
    4.7821   -0.4411   -1.0382 C   0  0  0  0  0  0
    4.3171    0.0306    0.2239 O   0  0  0  0  0  0
    4.3513    0.2100   -1.7913 H   0  0  0  0  0  0
    5.8681   -0.3903   -1.1125 H   0  0  0  0  0  0
    4.4538   -1.4609   -1.2373 H   0  0  0  0  0  0
    4.6851   -0.5415    0.9015 H   0  0  0  0  0  0
   -0.5253   -0.0510   -0.3145 O   0  0  0  0  0  0
   -0.9420    0.7479    0.0113 H   0  0  0  0  0  0
    0.4037    0.0598   -0.0736 H   0  0  0  0  0  0
  1  2  1  0  0  0
  1  3  1  0  0  0
  1  4  1  0  0  0
  1  5  1  0  0  0
  2  6  1  0  0  0
  7  8  1  0  0  0
  7  9  1  0  0  0
M  END
$$$$
