


  9  7  0  0  1  0            999 V2000
    2.6298   -0.4250   -1.2019 C   0  0  0  0  0  0
    2.1648    0.0466    0.0603 O   0  0  0  0  0  0
    2.1990    0.2261   -1.9550 H   0  0  0  0  0  0
    3.7157   -0.3742   -1.2762 H   0  0  0  0  0  0
    2.3014   -1.4449   -1.4009 H   0  0  0  0  0  0
    2.5328   -0.5254    0.7378 H   0  0  0  0  0  0
   -0.5253   -0.0510   -0.3145 O   0  0  0  0  0  0
   -0.9420    0.7479    0.0113 H   0  0  0  0  0  0
    0.4037    0.0598   -0.0736 H   0  0  0  0  0  0
  1  2  1  0  0  0
  1  3  1  0  0  0
  1  4  1  0  0  0
  1  5  1  0  0  0
  2  6  1  0  0  0
  7  8  1  0  0  0
  7  9  1  0  0  0
M  END
$$$$
