


  9  7  0  0  1  0            999 V2000
    2.9233   -0.4272   -1.1795 C   0  0  0  0  0  0
    2.4583    0.0444    0.0826 O   0  0  0  0  0  0
    2.4925    0.2239   -1.9326 H   0  0  0  0  0  0
    4.0092   -0.3764   -1.2538 H   0  0  0  0  0  0
    2.5949   -1.4471   -1.3786 H   0  0  0  0  0  0
    2.8263   -0.5276    0.7602 H   0  0  0  0  0  0
   -0.5253   -0.0510   -0.3145 O   0  0  0  0  0  0
   -0.9420    0.7479    0.0113 H   0  0  0  0  0  0
    0.4037    0.0598   -0.0736 H   0  0  0  0  0  0
  1  2  1  0  0  0
  1  3  1  0  0  0
  1  4  1  0  0  0
  1  5  1  0  0  0
  2  6  1  0  0  0
  7  8  1  0  0  0
  7  9  1  0  0  0
M  END
$$$$
