


  9  7  0  0  1  0            999 V2000
   -1.2480   -1.2903    0.0011 C   0  0  0  0  0  0
   -0.7866    0.0452   -0.0072 O   0  0  0  0  0  0
   -2.3343   -1.2589    0.0002 H   0  0  0  0  0  0
   -0.9260   -1.8498   -0.8805 H   0  0  0  0  0  0
   -0.9270   -1.8385    0.8901 H   0  0  0  0  0  0
    0.1777    0.0127   -0.0068 H   0  0  0  0  0  0
    2.2612   -0.0557   -0.0046 O   0  0  0  0  0  0
    2.7004    0.3325   -0.7645 H   0  0  0  0  0  0
    2.6990    0.3469    0.7485 H   0  0  0  0  0  0
  1  2  1  0  0  0
  1  3  1  0  0  0
  1  4  1  0  0  0
  1  5  1  0  0  0
  2  6  1  0  0  0
  7  8  1  0  0  0
  7  9  1  0  0  0
M  END
$$$$
