


  9  7  0  0  1  0            999 V2000
    3.8038   -0.4338   -1.1126 C   0  0  0  0  0  0
    3.3388    0.0379    0.1496 O   0  0  0  0  0  0
    3.3730    0.2173   -1.8657 H   0  0  0  0  0  0
    4.8897   -0.3830   -1.1869 H   0  0  0  0  0  0
    3.4754   -1.4536   -1.3117 H   0  0  0  0  0  0
    3.7067   -0.5342    0.8271 H   0  0  0  0  0  0
   -0.5253   -0.0510   -0.3145 O   0  0  0  0  0  0
   -0.9420    0.7479    0.0113 H   0  0  0  0  0  0
    0.4037    0.0598   -0.0736 H   0  0  0  0  0  0
  1  2  1  0  0  0
  1  3  1  0  0  0
  1  4  1  0  0  0
  1  5  1  0  0  0
  2  6  1  0  0  0
  7  8  1  0  0  0
  7  9  1  0  0  0
M  END
$$$$
