


  9  7  0  0  1  0            999 V2000
    3.3146   -0.4301   -1.1498 C   0  0  0  0  0  0
    2.8496    0.0415    0.1124 O   0  0  0  0  0  0
    2.8838    0.2210   -1.9029 H   0  0  0  0  0  0
    4.4006   -0.3793   -1.2241 H   0  0  0  0  0  0
    2.9863   -1.4500   -1.3489 H   0  0  0  0  0  0
    3.2176   -0.5306    0.7899 H   0  0  0  0  0  0
   -0.5253   -0.0510   -0.3145 O   0  0  0  0  0  0
   -0.9420    0.7479    0.0113 H   0  0  0  0  0  0
    0.4037    0.0598   -0.0736 H   0  0  0  0  0  0
  1  2  1  0  0  0
  1  3  1  0  0  0
  1  4  1  0  0  0
  1  5  1  0  0  0
  2  6  1  0  0  0
  7  8  1  0  0  0
  7  9  1  0  0  0
M  END
$$$$
