


  9  7  0  0  1  0            999 V2000
    3.0211   -0.4279   -1.1721 C   0  0  0  0  0  0
    2.5561    0.0437    0.0901 O   0  0  0  0  0  0
    2.5903    0.2232   -1.9252 H   0  0  0  0  0  0
    4.1071   -0.3771   -1.2464 H   0  0  0  0  0  0
    2.6928   -1.4478   -1.3712 H   0  0  0  0  0  0
    2.9241   -0.5284    0.7676 H   0  0  0  0  0  0
   -0.5253   -0.0510   -0.3145 O   0  0  0  0  0  0
   -0.9420    0.7479    0.0113 H   0  0  0  0  0  0
    0.4037    0.0598   -0.0736 H   0  0  0  0  0  0
  1  2  1  0  0  0
  1  3  1  0  0  0
  1  4  1  0  0  0
  1  5  1  0  0  0
  2  6  1  0  0  0
  7  8  1  0  0  0
  7  9  1  0  0  0
M  END
$$$$
