


  9  7  0  0  1  0            999 V2000
   -1.2480   -1.2903    0.0011 C   0  0  0  0  0  0
   -0.7866    0.0452   -0.0072 O   0  0  0  0  0  0
   -2.3343   -1.2589    0.0002 H   0  0  0  0  0  0
   -0.9260   -1.8498   -0.8805 H   0  0  0  0  0  0
   -0.9270   -1.8385    0.8901 H   0  0  0  0  0  0
    0.1777    0.0127   -0.0068 H   0  0  0  0  0  0
    1.9635   -0.0459   -0.0049 O   0  0  0  0  0  0
    2.4027    0.3422   -0.7648 H   0  0  0  0  0  0
    2.4014    0.3567    0.7482 H   0  0  0  0  0  0
  1  2  1  0  0  0
  1  3  1  0  0  0
  1  4  1  0  0  0
  1  5  1  0  0  0
  2  6  1  0  0  0
  7  8  1  0  0  0
  7  9  1  0  0  0
M  END
$$$$
