


  9  7  0  0  1  0            999 V2000
    2.7276   -0.4257   -1.1944 C   0  0  0  0  0  0
    2.2626    0.0459    0.0677 O   0  0  0  0  0  0
    2.2968    0.2254   -1.9475 H   0  0  0  0  0  0
    3.8136   -0.3749   -1.2687 H   0  0  0  0  0  0
    2.3993   -1.4456   -1.3935 H   0  0  0  0  0  0
    2.6306   -0.5262    0.7453 H   0  0  0  0  0  0
   -0.5253   -0.0510   -0.3145 O   0  0  0  0  0  0
   -0.9420    0.7479    0.0113 H   0  0  0  0  0  0
    0.4037    0.0598   -0.0736 H   0  0  0  0  0  0
  1  2  1  0  0  0
  1  3  1  0  0  0
  1  4  1  0  0  0
  1  5  1  0  0  0
  2  6  1  0  0  0
  7  8  1  0  0  0
  7  9  1  0  0  0
M  END
$$$$
