


  9  7  0  0  1  0            999 V2000
    2.8254   -0.4265   -1.1870 C   0  0  0  0  0  0
    2.3603    0.0452    0.0752 O   0  0  0  0  0  0
    2.3945    0.2246   -1.9401 H   0  0  0  0  0  0
    3.9113   -0.3757   -1.2613 H   0  0  0  0  0  0
    2.4970   -1.4463   -1.3861 H   0  0  0  0  0  0
    2.7283   -0.5269    0.7527 H   0  0  0  0  0  0
   -0.5253   -0.0510   -0.3145 O   0  0  0  0  0  0
   -0.9420    0.7479    0.0113 H   0  0  0  0  0  0
    0.4037    0.0598   -0.0736 H   0  0  0  0  0  0
  1  2  1  0  0  0
  1  3  1  0  0  0
  1  4  1  0  0  0
  1  5  1  0  0  0
  2  6  1  0  0  0
  7  8  1  0  0  0
  7  9  1  0  0  0
M  END
$$$$
