


 24 24  0  0  1  0            999 V2000
    0.7127    1.1210    0.0605 C   0  0  0  0  0  0
    1.2582   -0.1593    0.1242 C   0  0  0  0  0  0
    0.4269   -1.2745    0.0426 C   0  0  0  0  0  0
   -0.9496   -1.1101   -0.1003 C   0  0  0  0  0  0
   -1.4955    0.1710   -0.1616 C   0  0  0  0  0  0
   -0.6638    1.2866   -0.0834 C   0  0  0  0  0  0
    1.3578    1.9864    0.1277 H   0  0  0  0  0  0
    2.3249   -0.2871    0.2467 H   0  0  0  0  0  0
    0.8504   -2.2684    0.0948 H   0  0  0  0  0  0
   -1.5945   -1.9763   -0.1637 H   0  0  0  0  0  0
   -2.5638    0.2992   -0.2737 H   0  0  0  0  0  0
   -1.0869    2.2810   -0.1329 H   0  0  0  0  0  0
    2.5740    1.1043    5.3873 C   0  0  0  0  0  0
    3.1199   -0.1769    5.4488 C   0  0  0  0  0  0
    2.2883   -1.2925    5.3702 C   0  0  0  0  0  0
    0.9119   -1.1269    5.2255 C   0  0  0  0  0  0
    0.3663    0.1534    5.1615 C   0  0  0  0  0  0
    1.1976    1.2687    5.2436 C   0  0  0  0  0  0
    3.2188    1.9704    5.4511 H   0  0  0  0  0  0
    4.1881   -0.3050    5.5616 H   0  0  0  0  0  0
    2.7114   -2.2868    5.4198 H   0  0  0  0  0  0
    0.2668   -1.9923    5.1578 H   0  0  0  0  0  0
   -0.7003    0.2812    5.0383 H   0  0  0  0  0  0
    0.7741    2.2626    5.1912 H   0  0  0  0  0  0
  1  2  1  0  0  0
  2  3  2  0  0  0
  3  4  1  0  0  0
  4  5  2  0  0  0
  5  6  1  0  0  0
  1  6  2  0  0  0
  1  7  1  0  0  0
  2  8  1  0  0  0
  3  9  1  0  0  0
  4 10  1  0  0  0
  5 11  1  0  0  0
  6 12  1  0  0  0
 13 14  1  0  0  0
 14 15  2  0  0  0
 15 16  1  0  0  0
 16 17  2  0  0  0
 17 18  1  0  0  0
 13 18  2  0  0  0
 13 19  1  0  0  0
 14 20  1  0  0  0
 15 21  1  0  0  0
 16 22  1  0  0  0
 17 23  1  0  0  0
 18 24  1  0  0  0
M  END
$$$$
