


 24 24  0  0  1  0            999 V2000
    0.7127    1.1210    0.0605 C   0  0  0  0  0  0
    1.2582   -0.1593    0.1242 C   0  0  0  0  0  0
    0.4269   -1.2745    0.0426 C   0  0  0  0  0  0
   -0.9496   -1.1101   -0.1003 C   0  0  0  0  0  0
   -1.4955    0.1710   -0.1616 C   0  0  0  0  0  0
   -0.6638    1.2866   -0.0834 C   0  0  0  0  0  0
    1.3578    1.9864    0.1277 H   0  0  0  0  0  0
    2.3249   -0.2871    0.2467 H   0  0  0  0  0  0
    0.8504   -2.2684    0.0948 H   0  0  0  0  0  0
   -1.5945   -1.9763   -0.1637 H   0  0  0  0  0  0
   -2.5638    0.2992   -0.2737 H   0  0  0  0  0  0
   -1.0869    2.2810   -0.1329 H   0  0  0  0  0  0
    2.2537    1.1073    4.4711 C   0  0  0  0  0  0
    2.7996   -0.1739    4.5326 C   0  0  0  0  0  0
    1.9680   -1.2895    4.4540 C   0  0  0  0  0  0
    0.5916   -1.1238    4.3092 C   0  0  0  0  0  0
    0.0460    0.1564    4.2453 C   0  0  0  0  0  0
    0.8773    1.2717    4.3274 C   0  0  0  0  0  0
    2.8985    1.9734    4.5349 H   0  0  0  0  0  0
    3.8679   -0.3020    4.6454 H   0  0  0  0  0  0
    2.3911   -2.2838    4.5036 H   0  0  0  0  0  0
   -0.0535   -1.9893    4.2416 H   0  0  0  0  0  0
   -1.0206    0.2842    4.1221 H   0  0  0  0  0  0
    0.4538    2.2656    4.2750 H   0  0  0  0  0  0
  1  2  1  0  0  0
  2  3  2  0  0  0
  3  4  1  0  0  0
  4  5  2  0  0  0
  5  6  1  0  0  0
  1  6  2  0  0  0
  1  7  1  0  0  0
  2  8  1  0  0  0
  3  9  1  0  0  0
  4 10  1  0  0  0
  5 11  1  0  0  0
  6 12  1  0  0  0
 13 14  1  0  0  0
 14 15  2  0  0  0
 15 16  1  0  0  0
 16 17  2  0  0  0
 17 18  1  0  0  0
 13 18  2  0  0  0
 13 19  1  0  0  0
 14 20  1  0  0  0
 15 21  1  0  0  0
 16 22  1  0  0  0
 17 23  1  0  0  0
 18 24  1  0  0  0
M  END
$$$$
