


 24 24  0  0  1  0            999 V2000
    0.7127    1.1210    0.0605 C   0  0  0  0  0  0
    1.2582   -0.1593    0.1242 C   0  0  0  0  0  0
    0.4269   -1.2745    0.0426 C   0  0  0  0  0  0
   -0.9496   -1.1101   -0.1003 C   0  0  0  0  0  0
   -1.4955    0.1710   -0.1616 C   0  0  0  0  0  0
   -0.6638    1.2866   -0.0834 C   0  0  0  0  0  0
    1.3578    1.9864    0.1277 H   0  0  0  0  0  0
    2.3249   -0.2871    0.2467 H   0  0  0  0  0  0
    0.8504   -2.2684    0.0948 H   0  0  0  0  0  0
   -1.5945   -1.9763   -0.1637 H   0  0  0  0  0  0
   -2.5638    0.2992   -0.2737 H   0  0  0  0  0  0
   -1.0869    2.2810   -0.1329 H   0  0  0  0  0  0
    1.8888    1.1107    3.4272 C   0  0  0  0  0  0
    2.4348   -0.1705    3.4888 C   0  0  0  0  0  0
    1.6031   -1.2861    3.4101 C   0  0  0  0  0  0
    0.2267   -1.1204    3.2654 C   0  0  0  0  0  0
   -0.3189    0.1598    3.2014 C   0  0  0  0  0  0
    0.5124    1.2751    3.2835 C   0  0  0  0  0  0
    2.5336    1.9769    3.4910 H   0  0  0  0  0  0
    3.5030   -0.2986    3.6015 H   0  0  0  0  0  0
    2.0262   -2.2804    3.4598 H   0  0  0  0  0  0
   -0.4184   -1.9858    3.1978 H   0  0  0  0  0  0
   -1.3855    0.2876    3.0782 H   0  0  0  0  0  0
    0.0889    2.2690    3.2311 H   0  0  0  0  0  0
  1  2  1  0  0  0
  2  3  2  0  0  0
  3  4  1  0  0  0
  4  5  2  0  0  0
  5  6  1  0  0  0
  1  6  2  0  0  0
  1  7  1  0  0  0
  2  8  1  0  0  0
  3  9  1  0  0  0
  4 10  1  0  0  0
  5 11  1  0  0  0
  6 12  1  0  0  0
 13 14  1  0  0  0
 14 15  2  0  0  0
 15 16  1  0  0  0
 16 17  2  0  0  0
 17 18  1  0  0  0
 13 18  2  0  0  0
 13 19  1  0  0  0
 14 20  1  0  0  0
 15 21  1  0  0  0
 16 22  1  0  0  0
 17 23  1  0  0  0
 18 24  1  0  0  0
M  END
$$$$
