


 24 24  0  0  1  0            999 V2000
    0.7292    1.1131    0.3267 C   0  0  0  0  0  0
    1.3751   -0.1194    0.4128 C   0  0  0  0  0  0
    0.6350   -1.2806    0.6294 C   0  0  0  0  0  0
   -0.7510   -1.2097    0.7579 C   0  0  0  0  0  0
   -1.3970    0.0227    0.6731 C   0  0  0  0  0  0
   -0.6569    1.1843    0.4583 C   0  0  0  0  0  0
    1.3032    2.0142    0.1592 H   0  0  0  0  0  0
    2.4505   -0.1746    0.3133 H   0  0  0  0  0  0
    1.1363   -2.2360    0.7002 H   0  0  0  0  0  0
   -1.3245   -2.1114    0.9242 H   0  0  0  0  0  0
   -2.4724    0.0785    0.7740 H   0  0  0  0  0  0
   -1.1578    2.1406    0.3951 H   0  0  0  0  0  0
    0.1896    0.1991    4.3559 C   0  0  0  0  0  0
   -0.9014   -0.5558    4.7832 C   0  0  0  0  0  0
   -1.0621   -0.8499    6.1361 C   0  0  0  0  0  0
   -0.1303   -0.3889    7.0646 C   0  0  0  0  0  0
    0.9613    0.3662    6.6394 C   0  0  0  0  0  0
    1.1201    0.6597    5.2859 C   0  0  0  0  0  0
    0.3118    0.4246    3.3054 H   0  0  0  0  0  0
   -1.6219   -0.9123    4.0595 H   0  0  0  0  0  0
   -1.9093   -1.4359    6.4664 H   0  0  0  0  0  0
   -0.2542   -0.6168    8.1146 H   0  0  0  0  0  0
    1.6845    0.7241    7.3598 H   0  0  0  0  0  0
    1.9674    1.2458    4.9559 H   0  0  0  0  0  0
  1  2  1  0  0  0
  2  3  2  0  0  0
  3  4  1  0  0  0
  4  5  2  0  0  0
  5  6  1  0  0  0
  1  6  2  0  0  0
  1  7  1  0  0  0
  2  8  1  0  0  0
  3  9  1  0  0  0
  4 10  1  0  0  0
  5 11  1  0  0  0
  6 12  1  0  0  0
 13 14  1  0  0  0
 14 15  2  0  0  0
 15 16  1  0  0  0
 16 17  2  0  0  0
 17 18  1  0  0  0
 13 18  2  0  0  0
 13 19  1  0  0  0
 14 20  1  0  0  0
 15 21  1  0  0  0
 16 22  1  0  0  0
 17 23  1  0  0  0
 18 24  1  0  0  0
M  END
$$$$
