


 24 24  0  0  1  0            999 V2000
    0.7292    1.1131    0.3267 C   0  0  0  0  0  0
    1.3751   -0.1194    0.4128 C   0  0  0  0  0  0
    0.6350   -1.2806    0.6294 C   0  0  0  0  0  0
   -0.7510   -1.2097    0.7579 C   0  0  0  0  0  0
   -1.3970    0.0227    0.6731 C   0  0  0  0  0  0
   -0.6569    1.1843    0.4583 C   0  0  0  0  0  0
    1.3032    2.0142    0.1592 H   0  0  0  0  0  0
    2.4505   -0.1746    0.3133 H   0  0  0  0  0  0
    1.1363   -2.2360    0.7002 H   0  0  0  0  0  0
   -1.3245   -2.1114    0.9242 H   0  0  0  0  0  0
   -2.4724    0.0785    0.7740 H   0  0  0  0  0  0
   -1.1578    2.1406    0.3951 H   0  0  0  0  0  0
    0.1346    0.1184    3.8844 C   0  0  0  0  0  0
   -0.9565   -0.6365    4.3118 C   0  0  0  0  0  0
   -1.1172   -0.9306    5.6647 C   0  0  0  0  0  0
   -0.1853   -0.4696    6.5932 C   0  0  0  0  0  0
    0.9063    0.2855    6.1680 C   0  0  0  0  0  0
    1.0651    0.5790    4.8145 C   0  0  0  0  0  0
    0.2567    0.3439    2.8340 H   0  0  0  0  0  0
   -1.6770   -0.9930    3.5881 H   0  0  0  0  0  0
   -1.9643   -1.5166    5.9950 H   0  0  0  0  0  0
   -0.3092   -0.6975    7.6432 H   0  0  0  0  0  0
    1.6294    0.6434    6.8884 H   0  0  0  0  0  0
    1.9123    1.1651    4.4844 H   0  0  0  0  0  0
  1  2  1  0  0  0
  2  3  2  0  0  0
  3  4  1  0  0  0
  4  5  2  0  0  0
  5  6  1  0  0  0
  1  6  2  0  0  0
  1  7  1  0  0  0
  2  8  1  0  0  0
  3  9  1  0  0  0
  4 10  1  0  0  0
  5 11  1  0  0  0
  6 12  1  0  0  0
 13 14  1  0  0  0
 14 15  2  0  0  0
 15 16  1  0  0  0
 16 17  2  0  0  0
 17 18  1  0  0  0
 13 18  2  0  0  0
 13 19  1  0  0  0
 14 20  1  0  0  0
 15 21  1  0  0  0
 16 22  1  0  0  0
 17 23  1  0  0  0
 18 24  1  0  0  0
M  END
$$$$
