


 24 24  0  0  1  0            999 V2000
    0.7127    1.1210    0.0605 C   0  0  0  0  0  0
    1.2582   -0.1593    0.1242 C   0  0  0  0  0  0
    0.4269   -1.2745    0.0426 C   0  0  0  0  0  0
   -0.9496   -1.1101   -0.1003 C   0  0  0  0  0  0
   -1.4955    0.1710   -0.1616 C   0  0  0  0  0  0
   -0.6638    1.2866   -0.0834 C   0  0  0  0  0  0
    1.3578    1.9864    0.1277 H   0  0  0  0  0  0
    2.3249   -0.2871    0.2467 H   0  0  0  0  0  0
    0.8504   -2.2684    0.0948 H   0  0  0  0  0  0
   -1.5945   -1.9763   -0.1637 H   0  0  0  0  0  0
   -2.5638    0.2992   -0.2737 H   0  0  0  0  0  0
   -1.0869    2.2810   -0.1329 H   0  0  0  0  0  0
    1.8275    1.1113    3.2519 C   0  0  0  0  0  0
    2.3735   -0.1699    3.3134 C   0  0  0  0  0  0
    1.5418   -1.2855    3.2348 C   0  0  0  0  0  0
    0.1654   -1.1199    3.0900 C   0  0  0  0  0  0
   -0.3801    0.1604    3.0261 C   0  0  0  0  0  0
    0.4511    1.2757    3.1081 C   0  0  0  0  0  0
    2.4723    1.9774    3.3156 H   0  0  0  0  0  0
    3.4417   -0.2980    3.4262 H   0  0  0  0  0  0
    1.9649   -2.2798    3.2844 H   0  0  0  0  0  0
   -0.4797   -1.9853    3.0224 H   0  0  0  0  0  0
   -1.4468    0.2882    2.9029 H   0  0  0  0  0  0
    0.0276    2.2696    3.0558 H   0  0  0  0  0  0
  1  2  1  0  0  0
  2  3  2  0  0  0
  3  4  1  0  0  0
  4  5  2  0  0  0
  5  6  1  0  0  0
  1  6  2  0  0  0
  1  7  1  0  0  0
  2  8  1  0  0  0
  3  9  1  0  0  0
  4 10  1  0  0  0
  5 11  1  0  0  0
  6 12  1  0  0  0
 13 14  1  0  0  0
 14 15  2  0  0  0
 15 16  1  0  0  0
 16 17  2  0  0  0
 17 18  1  0  0  0
 13 18  2  0  0  0
 13 19  1  0  0  0
 14 20  1  0  0  0
 15 21  1  0  0  0
 16 22  1  0  0  0
 17 23  1  0  0  0
 18 24  1  0  0  0
M  END
$$$$
