


 24 24  0  0  1  0            999 V2000
    0.7127    1.1210    0.0605 C   0  0  0  0  0  0
    1.2582   -0.1593    0.1242 C   0  0  0  0  0  0
    0.4269   -1.2745    0.0426 C   0  0  0  0  0  0
   -0.9496   -1.1101   -0.1003 C   0  0  0  0  0  0
   -1.4955    0.1710   -0.1616 C   0  0  0  0  0  0
   -0.6638    1.2866   -0.0834 C   0  0  0  0  0  0
    1.3578    1.9864    0.1277 H   0  0  0  0  0  0
    2.3249   -0.2871    0.2467 H   0  0  0  0  0  0
    0.8504   -2.2684    0.0948 H   0  0  0  0  0  0
   -1.5945   -1.9763   -0.1637 H   0  0  0  0  0  0
   -2.5638    0.2992   -0.2737 H   0  0  0  0  0  0
   -1.0869    2.2810   -0.1329 H   0  0  0  0  0  0
    1.9495    1.1101    3.6008 C   0  0  0  0  0  0
    2.4954   -0.1710    3.6623 C   0  0  0  0  0  0
    1.6638   -1.2866    3.5837 C   0  0  0  0  0  0
    0.2874   -1.1210    3.4390 C   0  0  0  0  0  0
   -0.2582    0.1592    3.3750 C   0  0  0  0  0  0
    0.5731    1.2745    3.4571 C   0  0  0  0  0  0
    2.5943    1.9763    3.6646 H   0  0  0  0  0  0
    3.5636   -0.2992    3.7751 H   0  0  0  0  0  0
    2.0869   -2.2810    3.6334 H   0  0  0  0  0  0
   -0.3577   -1.9864    3.3714 H   0  0  0  0  0  0
   -1.3248    0.2871    3.2518 H   0  0  0  0  0  0
    0.1496    2.2684    3.4047 H   0  0  0  0  0  0
  1  2  1  0  0  0
  2  3  2  0  0  0
  3  4  1  0  0  0
  4  5  2  0  0  0
  5  6  1  0  0  0
  1  6  2  0  0  0
  1  7  1  0  0  0
  2  8  1  0  0  0
  3  9  1  0  0  0
  4 10  1  0  0  0
  5 11  1  0  0  0
  6 12  1  0  0  0
 13 14  1  0  0  0
 14 15  2  0  0  0
 15 16  1  0  0  0
 16 17  2  0  0  0
 17 18  1  0  0  0
 13 18  2  0  0  0
 13 19  1  0  0  0
 14 20  1  0  0  0
 15 21  1  0  0  0
 16 22  1  0  0  0
 17 23  1  0  0  0
 18 24  1  0  0  0
M  END
$$$$
