


 24 24  0  0  1  0            999 V2000
    0.7292    1.1131    0.3267 C   0  0  0  0  0  0
    1.3751   -0.1194    0.4128 C   0  0  0  0  0  0
    0.6350   -1.2806    0.6294 C   0  0  0  0  0  0
   -0.7510   -1.2097    0.7579 C   0  0  0  0  0  0
   -1.3970    0.0227    0.6731 C   0  0  0  0  0  0
   -0.6569    1.1843    0.4583 C   0  0  0  0  0  0
    1.3032    2.0142    0.1592 H   0  0  0  0  0  0
    2.4505   -0.1746    0.3133 H   0  0  0  0  0  0
    1.1363   -2.2360    0.7002 H   0  0  0  0  0  0
   -1.3245   -2.1114    0.9242 H   0  0  0  0  0  0
   -2.4724    0.0785    0.7740 H   0  0  0  0  0  0
   -1.1578    2.1406    0.3951 H   0  0  0  0  0  0
    0.3289    0.4031    5.5475 C   0  0  0  0  0  0
   -0.7622   -0.3518    5.9748 C   0  0  0  0  0  0
   -0.9229   -0.6460    7.3278 C   0  0  0  0  0  0
    0.0089   -0.1849    8.2563 C   0  0  0  0  0  0
    1.1005    0.5702    7.8310 C   0  0  0  0  0  0
    1.2593    0.8637    6.4775 C   0  0  0  0  0  0
    0.4510    0.6286    4.4971 H   0  0  0  0  0  0
   -1.4827   -0.7083    5.2511 H   0  0  0  0  0  0
   -1.7700   -1.2319    7.6580 H   0  0  0  0  0  0
   -0.1149   -0.4129    9.3063 H   0  0  0  0  0  0
    1.8237    0.9280    8.5514 H   0  0  0  0  0  0
    2.1066    1.4498    6.1475 H   0  0  0  0  0  0
  1  2  1  0  0  0
  2  3  2  0  0  0
  3  4  1  0  0  0
  4  5  2  0  0  0
  5  6  1  0  0  0
  1  6  2  0  0  0
  1  7  1  0  0  0
  2  8  1  0  0  0
  3  9  1  0  0  0
  4 10  1  0  0  0
  5 11  1  0  0  0
  6 12  1  0  0  0
 13 14  1  0  0  0
 14 15  2  0  0  0
 15 16  1  0  0  0
 16 17  2  0  0  0
 17 18  1  0  0  0
 13 18  2  0  0  0
 13 19  1  0  0  0
 14 20  1  0  0  0
 15 21  1  0  0  0
 16 22  1  0  0  0
 17 23  1  0  0  0
 18 24  1  0  0  0
M  END
$$$$
