


 24 24  0  0  1  0            999 V2000
    0.7127    1.1210    0.0605 C   0  0  0  0  0  0
    1.2582   -0.1593    0.1242 C   0  0  0  0  0  0
    0.4269   -1.2745    0.0426 C   0  0  0  0  0  0
   -0.9496   -1.1101   -0.1003 C   0  0  0  0  0  0
   -1.4955    0.1710   -0.1616 C   0  0  0  0  0  0
   -0.6638    1.2866   -0.0834 C   0  0  0  0  0  0
    1.3578    1.9864    0.1277 H   0  0  0  0  0  0
    2.3249   -0.2871    0.2467 H   0  0  0  0  0  0
    0.8504   -2.2684    0.0948 H   0  0  0  0  0  0
   -1.5945   -1.9763   -0.1637 H   0  0  0  0  0  0
   -2.5638    0.2992   -0.2737 H   0  0  0  0  0  0
   -1.0869    2.2810   -0.1329 H   0  0  0  0  0  0
    3.1876    1.0985    7.1428 C   0  0  0  0  0  0
    3.7336   -0.1826    7.2044 C   0  0  0  0  0  0
    2.9019   -1.2982    7.1257 C   0  0  0  0  0  0
    1.5256   -1.1326    6.9810 C   0  0  0  0  0  0
    0.9800    0.1476    6.9170 C   0  0  0  0  0  0
    1.8113    1.2629    6.9991 C   0  0  0  0  0  0
    3.8325    1.9647    7.2066 H   0  0  0  0  0  0
    4.8018   -0.3108    7.3171 H   0  0  0  0  0  0
    3.3250   -2.2926    7.1754 H   0  0  0  0  0  0
    0.8804   -1.9980    6.9134 H   0  0  0  0  0  0
   -0.0866    0.2754    6.7939 H   0  0  0  0  0  0
    1.3877    2.2568    6.9467 H   0  0  0  0  0  0
  1  2  1  0  0  0
  2  3  2  0  0  0
  3  4  1  0  0  0
  4  5  2  0  0  0
  5  6  1  0  0  0
  1  6  2  0  0  0
  1  7  1  0  0  0
  2  8  1  0  0  0
  3  9  1  0  0  0
  4 10  1  0  0  0
  5 11  1  0  0  0
  6 12  1  0  0  0
 13 14  1  0  0  0
 14 15  2  0  0  0
 15 16  1  0  0  0
 16 17  2  0  0  0
 17 18  1  0  0  0
 13 18  2  0  0  0
 13 19  1  0  0  0
 14 20  1  0  0  0
 15 21  1  0  0  0
 16 22  1  0  0  0
 17 23  1  0  0  0
 18 24  1  0  0  0
M  END
$$$$
