


 24 24  0  0  1  0            999 V2000
    0.7292    1.1131    0.3267 C   0  0  0  0  0  0
    1.3751   -0.1194    0.4128 C   0  0  0  0  0  0
    0.6350   -1.2806    0.6294 C   0  0  0  0  0  0
   -0.7510   -1.2097    0.7579 C   0  0  0  0  0  0
   -1.3970    0.0227    0.6731 C   0  0  0  0  0  0
   -0.6569    1.1843    0.4583 C   0  0  0  0  0  0
    1.3032    2.0142    0.1592 H   0  0  0  0  0  0
    2.4505   -0.1746    0.3133 H   0  0  0  0  0  0
    1.1363   -2.2360    0.7002 H   0  0  0  0  0  0
   -1.3245   -2.1114    0.9242 H   0  0  0  0  0  0
   -2.4724    0.0785    0.7740 H   0  0  0  0  0  0
   -1.1578    2.1406    0.3951 H   0  0  0  0  0  0
    0.4963    0.6485    6.9811 C   0  0  0  0  0  0
   -0.5948   -0.1064    7.4084 C   0  0  0  0  0  0
   -0.7555   -0.4006    8.7613 C   0  0  0  0  0  0
    0.1764    0.0605    9.6898 C   0  0  0  0  0  0
    1.2680    0.8156    9.2646 C   0  0  0  0  0  0
    1.4268    1.1091    7.9111 C   0  0  0  0  0  0
    0.6184    0.8740    5.9306 H   0  0  0  0  0  0
   -1.3153   -0.4629    6.6847 H   0  0  0  0  0  0
   -1.6026   -0.9865    9.0916 H   0  0  0  0  0  0
    0.0525   -0.1675   10.7399 H   0  0  0  0  0  0
    1.9911    1.1734    9.9850 H   0  0  0  0  0  0
    2.2741    1.6952    7.5811 H   0  0  0  0  0  0
  1  2  1  0  0  0
  2  3  2  0  0  0
  3  4  1  0  0  0
  4  5  2  0  0  0
  5  6  1  0  0  0
  1  6  2  0  0  0
  1  7  1  0  0  0
  2  8  1  0  0  0
  3  9  1  0  0  0
  4 10  1  0  0  0
  5 11  1  0  0  0
  6 12  1  0  0  0
 13 14  1  0  0  0
 14 15  2  0  0  0
 15 16  1  0  0  0
 16 17  2  0  0  0
 17 18  1  0  0  0
 13 18  2  0  0  0
 13 19  1  0  0  0
 14 20  1  0  0  0
 15 21  1  0  0  0
 16 22  1  0  0  0
 17 23  1  0  0  0
 18 24  1  0  0  0
M  END
$$$$
