


 24 24  0  0  1  0            999 V2000
    0.7292    1.1131    0.3267 C   0  0  0  0  0  0
    1.3751   -0.1194    0.4128 C   0  0  0  0  0  0
    0.6350   -1.2806    0.6294 C   0  0  0  0  0  0
   -0.7510   -1.2097    0.7579 C   0  0  0  0  0  0
   -1.3970    0.0227    0.6731 C   0  0  0  0  0  0
   -0.6569    1.1843    0.4583 C   0  0  0  0  0  0
    1.3032    2.0142    0.1592 H   0  0  0  0  0  0
    2.4505   -0.1746    0.3133 H   0  0  0  0  0  0
    1.1363   -2.2360    0.7002 H   0  0  0  0  0  0
   -1.3245   -2.1114    0.9242 H   0  0  0  0  0  0
   -2.4724    0.0785    0.7740 H   0  0  0  0  0  0
   -1.1578    2.1406    0.3951 H   0  0  0  0  0  0
    0.1716    0.1726    4.2010 C   0  0  0  0  0  0
   -0.9195   -0.5823    4.6283 C   0  0  0  0  0  0
   -1.0802   -0.8764    5.9813 C   0  0  0  0  0  0
   -0.1483   -0.4154    6.9098 C   0  0  0  0  0  0
    0.9432    0.3397    6.4845 C   0  0  0  0  0  0
    1.1020    0.6332    5.1311 C   0  0  0  0  0  0
    0.2937    0.3981    3.1506 H   0  0  0  0  0  0
   -1.6400   -0.9388    3.9046 H   0  0  0  0  0  0
   -1.9273   -1.4624    6.3115 H   0  0  0  0  0  0
   -0.2722   -0.6433    7.9598 H   0  0  0  0  0  0
    1.6664    0.6976    7.2049 H   0  0  0  0  0  0
    1.9493    1.2193    4.8010 H   0  0  0  0  0  0
  1  2  1  0  0  0
  2  3  2  0  0  0
  3  4  1  0  0  0
  4  5  2  0  0  0
  5  6  1  0  0  0
  1  6  2  0  0  0
  1  7  1  0  0  0
  2  8  1  0  0  0
  3  9  1  0  0  0
  4 10  1  0  0  0
  5 11  1  0  0  0
  6 12  1  0  0  0
 13 14  1  0  0  0
 14 15  2  0  0  0
 15 16  1  0  0  0
 16 17  2  0  0  0
 17 18  1  0  0  0
 13 18  2  0  0  0
 13 19  1  0  0  0
 14 20  1  0  0  0
 15 21  1  0  0  0
 16 22  1  0  0  0
 17 23  1  0  0  0
 18 24  1  0  0  0
M  END
$$$$
