


 24 24  0  0  1  0            999 V2000
    0.7292    1.1131    0.3267 C   0  0  0  0  0  0
    1.3751   -0.1194    0.4128 C   0  0  0  0  0  0
    0.6350   -1.2806    0.6294 C   0  0  0  0  0  0
   -0.7510   -1.2097    0.7579 C   0  0  0  0  0  0
   -1.3970    0.0227    0.6731 C   0  0  0  0  0  0
   -0.6569    1.1843    0.4583 C   0  0  0  0  0  0
    1.3032    2.0142    0.1592 H   0  0  0  0  0  0
    2.4505   -0.1746    0.3133 H   0  0  0  0  0  0
    1.1363   -2.2360    0.7002 H   0  0  0  0  0  0
   -1.3245   -2.1114    0.9242 H   0  0  0  0  0  0
   -2.4724    0.0785    0.7740 H   0  0  0  0  0  0
   -1.1578    2.1406    0.3951 H   0  0  0  0  0  0
    0.1532    0.1457    4.0439 C   0  0  0  0  0  0
   -0.9379   -0.6092    4.4713 C   0  0  0  0  0  0
   -1.0986   -0.9033    5.8242 C   0  0  0  0  0  0
   -0.1667   -0.4423    6.7527 C   0  0  0  0  0  0
    0.9249    0.3128    6.3275 C   0  0  0  0  0  0
    1.0837    0.6063    4.9740 C   0  0  0  0  0  0
    0.2753    0.3712    2.9935 H   0  0  0  0  0  0
   -1.6584   -0.9657    3.7476 H   0  0  0  0  0  0
   -1.9457   -1.4893    6.1544 H   0  0  0  0  0  0
   -0.2906   -0.6702    7.8027 H   0  0  0  0  0  0
    1.6480    0.6707    7.0478 H   0  0  0  0  0  0
    1.9310    1.1924    4.6439 H   0  0  0  0  0  0
  1  2  1  0  0  0
  2  3  2  0  0  0
  3  4  1  0  0  0
  4  5  2  0  0  0
  5  6  1  0  0  0
  1  6  2  0  0  0
  1  7  1  0  0  0
  2  8  1  0  0  0
  3  9  1  0  0  0
  4 10  1  0  0  0
  5 11  1  0  0  0
  6 12  1  0  0  0
 13 14  1  0  0  0
 14 15  2  0  0  0
 15 16  1  0  0  0
 16 17  2  0  0  0
 17 18  1  0  0  0
 13 18  2  0  0  0
 13 19  1  0  0  0
 14 20  1  0  0  0
 15 21  1  0  0  0
 16 22  1  0  0  0
 17 23  1  0  0  0
 18 24  1  0  0  0
M  END
$$$$
