


 24 24  0  0  1  0            999 V2000
    0.7127    1.1210    0.0605 C   0  0  0  0  0  0
    1.2582   -0.1593    0.1242 C   0  0  0  0  0  0
    0.4269   -1.2745    0.0426 C   0  0  0  0  0  0
   -0.9496   -1.1101   -0.1003 C   0  0  0  0  0  0
   -1.4955    0.1710   -0.1616 C   0  0  0  0  0  0
   -0.6638    1.2866   -0.0834 C   0  0  0  0  0  0
    1.3578    1.9864    0.1277 H   0  0  0  0  0  0
    2.3249   -0.2871    0.2467 H   0  0  0  0  0  0
    0.8504   -2.2684    0.0948 H   0  0  0  0  0  0
   -1.5945   -1.9763   -0.1637 H   0  0  0  0  0  0
   -2.5638    0.2992   -0.2737 H   0  0  0  0  0  0
   -1.0869    2.2810   -0.1329 H   0  0  0  0  0  0
    2.0097    1.1095    3.7732 C   0  0  0  0  0  0
    2.5557   -0.1716    3.8347 C   0  0  0  0  0  0
    1.7241   -1.2872    3.7561 C   0  0  0  0  0  0
    0.3477   -1.1216    3.6114 C   0  0  0  0  0  0
   -0.1979    0.1587    3.5474 C   0  0  0  0  0  0
    0.6334    1.2739    3.6295 C   0  0  0  0  0  0
    2.6546    1.9757    3.8370 H   0  0  0  0  0  0
    3.6239   -0.2998    3.9475 H   0  0  0  0  0  0
    2.1471   -2.2815    3.8058 H   0  0  0  0  0  0
   -0.2975   -1.9870    3.5438 H   0  0  0  0  0  0
   -1.2645    0.2865    3.4242 H   0  0  0  0  0  0
    0.2098    2.2678    3.5771 H   0  0  0  0  0  0
  1  2  1  0  0  0
  2  3  2  0  0  0
  3  4  1  0  0  0
  4  5  2  0  0  0
  5  6  1  0  0  0
  1  6  2  0  0  0
  1  7  1  0  0  0
  2  8  1  0  0  0
  3  9  1  0  0  0
  4 10  1  0  0  0
  5 11  1  0  0  0
  6 12  1  0  0  0
 13 14  1  0  0  0
 14 15  2  0  0  0
 15 16  1  0  0  0
 16 17  2  0  0  0
 17 18  1  0  0  0
 13 18  2  0  0  0
 13 19  1  0  0  0
 14 20  1  0  0  0
 15 21  1  0  0  0
 16 22  1  0  0  0
 17 23  1  0  0  0
 18 24  1  0  0  0
M  END
$$$$
