


 24 24  0  0  1  0            999 V2000
    0.7292    1.1131    0.3267 C   0  0  0  0  0  0
    1.3751   -0.1194    0.4128 C   0  0  0  0  0  0
    0.6350   -1.2806    0.6294 C   0  0  0  0  0  0
   -0.7510   -1.2097    0.7579 C   0  0  0  0  0  0
   -1.3970    0.0227    0.6731 C   0  0  0  0  0  0
   -0.6569    1.1843    0.4583 C   0  0  0  0  0  0
    1.3032    2.0142    0.1592 H   0  0  0  0  0  0
    2.4505   -0.1746    0.3133 H   0  0  0  0  0  0
    1.1363   -2.2360    0.7002 H   0  0  0  0  0  0
   -1.3245   -2.1114    0.9242 H   0  0  0  0  0  0
   -2.4724    0.0785    0.7740 H   0  0  0  0  0  0
   -1.1578    2.1406    0.3951 H   0  0  0  0  0  0
    0.1155    0.0905    3.7216 C   0  0  0  0  0  0
   -0.9755   -0.6644    4.1489 C   0  0  0  0  0  0
   -1.1362   -0.9585    5.5019 C   0  0  0  0  0  0
   -0.2043   -0.4974    6.4303 C   0  0  0  0  0  0
    0.8872    0.2577    6.0051 C   0  0  0  0  0  0
    1.0460    0.5512    4.6516 C   0  0  0  0  0  0
    0.2377    0.3160    2.6711 H   0  0  0  0  0  0
   -1.6960   -1.0209    3.4252 H   0  0  0  0  0  0
   -1.9833   -1.5445    5.8321 H   0  0  0  0  0  0
   -0.3282   -0.7254    7.4804 H   0  0  0  0  0  0
    1.6104    0.6155    6.7255 H   0  0  0  0  0  0
    1.8933    1.1372    4.3216 H   0  0  0  0  0  0
  1  2  1  0  0  0
  2  3  2  0  0  0
  3  4  1  0  0  0
  4  5  2  0  0  0
  5  6  1  0  0  0
  1  6  2  0  0  0
  1  7  1  0  0  0
  2  8  1  0  0  0
  3  9  1  0  0  0
  4 10  1  0  0  0
  5 11  1  0  0  0
  6 12  1  0  0  0
 13 14  1  0  0  0
 14 15  2  0  0  0
 15 16  1  0  0  0
 16 17  2  0  0  0
 17 18  1  0  0  0
 13 18  2  0  0  0
 13 19  1  0  0  0
 14 20  1  0  0  0
 15 21  1  0  0  0
 16 22  1  0  0  0
 17 23  1  0  0  0
 18 24  1  0  0  0
M  END
$$$$
