


 29 27  0  0  1  0            999 V2000
    2.7787    0.5454    6.2366 C   0  0  0  0  0  0
    1.5505   -0.3180    5.9790 C   0  0  0  0  0  0
    0.2679    0.5006    5.9137 C   0  0  0  0  0  0
   -0.9764   -0.3497    5.6968 C   0  0  0  0  0  0
   -2.2433    0.4906    5.6067 C   0  0  0  0  0  0
    2.8956    1.2998    5.4578 H   0  0  0  0  0  0
    2.6926    1.0703    7.1882 H   0  0  0  0  0  0
    3.6908   -0.0488    6.2634 H   0  0  0  0  0  0
    1.4559   -1.0634    6.7721 H   0  0  0  0  0  0
    1.6669   -0.8715    5.0452 H   0  0  0  0  0  0
    0.1564    1.0784    6.8368 H   0  0  0  0  0  0
    0.3472    1.2334    5.1041 H   0  0  0  0  0  0
   -1.0672   -1.0642    6.5183 H   0  0  0  0  0  0
   -0.8486   -0.9387    4.7866 H   0  0  0  0  0  0
   -2.1763    1.1976    4.7790 H   0  0  0  0  0  0
   -3.1286   -0.1254    5.4529 H   0  0  0  0  0  0
   -2.3936    1.0668    6.5200 H   0  0  0  0  0  0
   -2.0598   -0.5774    0.6801 C   0  0  0  0  0  0
   -0.9500    0.3449    0.7739 N   0  0  0  0  0  0
    0.3267   -0.0777    0.9882 C   0  0  0  0  0  0
    0.6188   -1.2525    1.1713 O   0  0  0  0  0  0
    1.3722    1.0125    0.9708 C   0  0  0  0  0  0
   -1.6694   -1.5668    0.8972 H   0  0  0  0  0  0
   -2.8346   -0.3314    1.4037 H   0  0  0  0  0  0
   -2.4910   -0.5789   -0.3199 H   0  0  0  0  0  0
   -1.1047    1.3220    0.6061 H   0  0  0  0  0  0
    0.9522    2.0141    1.0331 H   0  0  0  0  0  0
    1.9474    0.9265    0.0507 H   0  0  0  0  0  0
    2.0517    0.8518    1.8030 H   0  0  0  0  0  0
  1  2  1  0  0  0
  2  3  1  0  0  0
  3  4  1  0  0  0
  4  5  1  0  0  0
  1  6  1  0  0  0
  1  7  1  0  0  0
  1  8  1  0  0  0
  2  9  1  0  0  0
  2 10  1  0  0  0
  3 11  1  0  0  0
  3 12  1  0  0  0
  4 13  1  0  0  0
  4 14  1  0  0  0
  5 15  1  0  0  0
  5 16  1  0  0  0
  5 17  1  0  0  0
 18 19  1  0  0  0
 19 20  1  0  0  0
 20 21  2  0  0  0
 20 22  1  0  0  0
 18 23  1  0  0  0
 18 24  1  0  0  0
 18 25  1  0  0  0
 19 26  1  0  0  0
 22 27  1  0  0  0
 22 28  1  0  0  0
 22 29  1  0  0  0
M  END
$$$$
