


 29 27  0  0  1  0            999 V2000
    2.6649    0.4657    4.9031 C   0  0  0  0  0  0
    1.4366   -0.3977    4.6455 C   0  0  0  0  0  0
    0.1541    0.4209    4.5802 C   0  0  0  0  0  0
   -1.0903   -0.4294    4.3633 C   0  0  0  0  0  0
   -2.3571    0.4109    4.2732 C   0  0  0  0  0  0
    2.7817    1.2201    4.1243 H   0  0  0  0  0  0
    2.5788    0.9906    5.8547 H   0  0  0  0  0  0
    3.5770   -0.1285    4.9299 H   0  0  0  0  0  0
    1.3421   -1.1431    5.4386 H   0  0  0  0  0  0
    1.5531   -0.9511    3.7117 H   0  0  0  0  0  0
    0.0425    0.9987    5.5033 H   0  0  0  0  0  0
    0.2333    1.1538    3.7706 H   0  0  0  0  0  0
   -1.1811   -1.1439    5.1848 H   0  0  0  0  0  0
   -0.9625   -1.0183    3.4531 H   0  0  0  0  0  0
   -2.2902    1.1179    3.4455 H   0  0  0  0  0  0
   -3.2424   -0.2051    4.1194 H   0  0  0  0  0  0
   -2.5075    0.9871    5.1865 H   0  0  0  0  0  0
   -2.0598   -0.5774    0.6801 C   0  0  0  0  0  0
   -0.9500    0.3449    0.7739 N   0  0  0  0  0  0
    0.3267   -0.0777    0.9882 C   0  0  0  0  0  0
    0.6188   -1.2525    1.1713 O   0  0  0  0  0  0
    1.3722    1.0125    0.9708 C   0  0  0  0  0  0
   -1.6694   -1.5668    0.8972 H   0  0  0  0  0  0
   -2.8346   -0.3314    1.4037 H   0  0  0  0  0  0
   -2.4910   -0.5789   -0.3199 H   0  0  0  0  0  0
   -1.1047    1.3220    0.6061 H   0  0  0  0  0  0
    0.9522    2.0141    1.0331 H   0  0  0  0  0  0
    1.9474    0.9265    0.0507 H   0  0  0  0  0  0
    2.0517    0.8518    1.8030 H   0  0  0  0  0  0
  1  2  1  0  0  0
  2  3  1  0  0  0
  3  4  1  0  0  0
  4  5  1  0  0  0
  1  6  1  0  0  0
  1  7  1  0  0  0
  1  8  1  0  0  0
  2  9  1  0  0  0
  2 10  1  0  0  0
  3 11  1  0  0  0
  3 12  1  0  0  0
  4 13  1  0  0  0
  4 14  1  0  0  0
  5 15  1  0  0  0
  5 16  1  0  0  0
  5 17  1  0  0  0
 18 19  1  0  0  0
 19 20  1  0  0  0
 20 21  2  0  0  0
 20 22  1  0  0  0
 18 23  1  0  0  0
 18 24  1  0  0  0
 18 25  1  0  0  0
 19 26  1  0  0  0
 22 27  1  0  0  0
 22 28  1  0  0  0
 22 29  1  0  0  0
M  END
$$$$
