


 29 27  0  0  1  0            999 V2000
    2.6434    0.4506    4.6506 C   0  0  0  0  0  0
    1.4151   -0.4128    4.3930 C   0  0  0  0  0  0
    0.1326    0.4059    4.3277 C   0  0  0  0  0  0
   -1.1118   -0.4445    4.1108 C   0  0  0  0  0  0
   -2.3786    0.3958    4.0207 C   0  0  0  0  0  0
    2.7602    1.2050    3.8718 H   0  0  0  0  0  0
    2.5572    0.9755    5.6022 H   0  0  0  0  0  0
    3.5554   -0.1436    4.6774 H   0  0  0  0  0  0
    1.3205   -1.1582    5.1861 H   0  0  0  0  0  0
    1.5315   -0.9662    3.4592 H   0  0  0  0  0  0
    0.0210    0.9836    5.2508 H   0  0  0  0  0  0
    0.2118    1.1387    3.5181 H   0  0  0  0  0  0
   -1.2026   -1.1590    4.9323 H   0  0  0  0  0  0
   -0.9840   -1.0334    3.2006 H   0  0  0  0  0  0
   -2.3117    1.1029    3.1930 H   0  0  0  0  0  0
   -3.2640   -0.2202    3.8669 H   0  0  0  0  0  0
   -2.5290    0.9720    4.9339 H   0  0  0  0  0  0
   -2.0598   -0.5774    0.6801 C   0  0  0  0  0  0
   -0.9500    0.3449    0.7739 N   0  0  0  0  0  0
    0.3267   -0.0777    0.9882 C   0  0  0  0  0  0
    0.6188   -1.2525    1.1713 O   0  0  0  0  0  0
    1.3722    1.0125    0.9708 C   0  0  0  0  0  0
   -1.6694   -1.5668    0.8972 H   0  0  0  0  0  0
   -2.8346   -0.3314    1.4037 H   0  0  0  0  0  0
   -2.4910   -0.5789   -0.3199 H   0  0  0  0  0  0
   -1.1047    1.3220    0.6061 H   0  0  0  0  0  0
    0.9522    2.0141    1.0331 H   0  0  0  0  0  0
    1.9474    0.9265    0.0507 H   0  0  0  0  0  0
    2.0517    0.8518    1.8030 H   0  0  0  0  0  0
  1  2  1  0  0  0
  2  3  1  0  0  0
  3  4  1  0  0  0
  4  5  1  0  0  0
  1  6  1  0  0  0
  1  7  1  0  0  0
  1  8  1  0  0  0
  2  9  1  0  0  0
  2 10  1  0  0  0
  3 11  1  0  0  0
  3 12  1  0  0  0
  4 13  1  0  0  0
  4 14  1  0  0  0
  5 15  1  0  0  0
  5 16  1  0  0  0
  5 17  1  0  0  0
 18 19  1  0  0  0
 19 20  1  0  0  0
 20 21  2  0  0  0
 20 22  1  0  0  0
 18 23  1  0  0  0
 18 24  1  0  0  0
 18 25  1  0  0  0
 19 26  1  0  0  0
 22 27  1  0  0  0
 22 28  1  0  0  0
 22 29  1  0  0  0
M  END
$$$$
