


 29 27  0  0  1  0            999 V2000
    2.8975    0.6285    7.6279 C   0  0  0  0  0  0
    1.6693   -0.2349    7.3703 C   0  0  0  0  0  0
    0.3867    0.5838    7.3050 C   0  0  0  0  0  0
   -0.8576   -0.2666    7.0882 C   0  0  0  0  0  0
   -2.1245    0.5737    6.9981 C   0  0  0  0  0  0
    3.0144    1.3829    6.8492 H   0  0  0  0  0  0
    2.8114    1.1534    8.5796 H   0  0  0  0  0  0
    3.8096    0.0343    7.6547 H   0  0  0  0  0  0
    1.5747   -0.9803    8.1634 H   0  0  0  0  0  0
    1.7857   -0.7883    6.4365 H   0  0  0  0  0  0
    0.2751    1.1615    8.2281 H   0  0  0  0  0  0
    0.4659    1.3166    6.4954 H   0  0  0  0  0  0
   -0.9485   -0.9811    7.9096 H   0  0  0  0  0  0
   -0.7298   -0.8555    6.1779 H   0  0  0  0  0  0
   -2.0576    1.2808    6.1703 H   0  0  0  0  0  0
   -3.0098   -0.0423    6.8442 H   0  0  0  0  0  0
   -2.2748    1.1499    7.9113 H   0  0  0  0  0  0
   -2.0598   -0.5774    0.6801 C   0  0  0  0  0  0
   -0.9500    0.3449    0.7739 N   0  0  0  0  0  0
    0.3267   -0.0777    0.9882 C   0  0  0  0  0  0
    0.6188   -1.2525    1.1713 O   0  0  0  0  0  0
    1.3722    1.0125    0.9708 C   0  0  0  0  0  0
   -1.6694   -1.5668    0.8972 H   0  0  0  0  0  0
   -2.8346   -0.3314    1.4037 H   0  0  0  0  0  0
   -2.4910   -0.5789   -0.3199 H   0  0  0  0  0  0
   -1.1047    1.3220    0.6061 H   0  0  0  0  0  0
    0.9522    2.0141    1.0331 H   0  0  0  0  0  0
    1.9474    0.9265    0.0507 H   0  0  0  0  0  0
    2.0517    0.8518    1.8030 H   0  0  0  0  0  0
  1  2  1  0  0  0
  2  3  1  0  0  0
  3  4  1  0  0  0
  4  5  1  0  0  0
  1  6  1  0  0  0
  1  7  1  0  0  0
  1  8  1  0  0  0
  2  9  1  0  0  0
  2 10  1  0  0  0
  3 11  1  0  0  0
  3 12  1  0  0  0
  4 13  1  0  0  0
  4 14  1  0  0  0
  5 15  1  0  0  0
  5 16  1  0  0  0
  5 17  1  0  0  0
 18 19  1  0  0  0
 19 20  1  0  0  0
 20 21  2  0  0  0
 20 22  1  0  0  0
 18 23  1  0  0  0
 18 24  1  0  0  0
 18 25  1  0  0  0
 19 26  1  0  0  0
 22 27  1  0  0  0
 22 28  1  0  0  0
 22 29  1  0  0  0
M  END
$$$$
