


 29 27  0  0  1  0            999 V2000
    2.6756    0.4732    5.0289 C   0  0  0  0  0  0
    1.4474   -0.3902    4.7713 C   0  0  0  0  0  0
    0.1648    0.4285    4.7060 C   0  0  0  0  0  0
   -1.0795   -0.4219    4.4892 C   0  0  0  0  0  0
   -2.3463    0.4184    4.3991 C   0  0  0  0  0  0
    2.7925    1.2277    4.2502 H   0  0  0  0  0  0
    2.5895    0.9981    5.9806 H   0  0  0  0  0  0
    3.5877   -0.1210    5.0557 H   0  0  0  0  0  0
    1.3528   -1.1356    5.5644 H   0  0  0  0  0  0
    1.5638   -0.9436    3.8375 H   0  0  0  0  0  0
    0.0533    1.0062    5.6291 H   0  0  0  0  0  0
    0.2441    1.1613    3.8964 H   0  0  0  0  0  0
   -1.1703   -1.1364    5.3106 H   0  0  0  0  0  0
   -0.9517   -1.0108    3.5790 H   0  0  0  0  0  0
   -2.2794    1.1255    3.5713 H   0  0  0  0  0  0
   -3.2317   -0.1976    4.2452 H   0  0  0  0  0  0
   -2.4967    0.9946    5.3123 H   0  0  0  0  0  0
   -2.0598   -0.5774    0.6801 C   0  0  0  0  0  0
   -0.9500    0.3449    0.7739 N   0  0  0  0  0  0
    0.3267   -0.0777    0.9882 C   0  0  0  0  0  0
    0.6188   -1.2525    1.1713 O   0  0  0  0  0  0
    1.3722    1.0125    0.9708 C   0  0  0  0  0  0
   -1.6694   -1.5668    0.8972 H   0  0  0  0  0  0
   -2.8346   -0.3314    1.4037 H   0  0  0  0  0  0
   -2.4910   -0.5789   -0.3199 H   0  0  0  0  0  0
   -1.1047    1.3220    0.6061 H   0  0  0  0  0  0
    0.9522    2.0141    1.0331 H   0  0  0  0  0  0
    1.9474    0.9265    0.0507 H   0  0  0  0  0  0
    2.0517    0.8518    1.8030 H   0  0  0  0  0  0
  1  2  1  0  0  0
  2  3  1  0  0  0
  3  4  1  0  0  0
  4  5  1  0  0  0
  1  6  1  0  0  0
  1  7  1  0  0  0
  1  8  1  0  0  0
  2  9  1  0  0  0
  2 10  1  0  0  0
  3 11  1  0  0  0
  3 12  1  0  0  0
  4 13  1  0  0  0
  4 14  1  0  0  0
  5 15  1  0  0  0
  5 16  1  0  0  0
  5 17  1  0  0  0
 18 19  1  0  0  0
 19 20  1  0  0  0
 20 21  2  0  0  0
 20 22  1  0  0  0
 18 23  1  0  0  0
 18 24  1  0  0  0
 18 25  1  0  0  0
 19 26  1  0  0  0
 22 27  1  0  0  0
 22 28  1  0  0  0
 22 29  1  0  0  0
M  END
$$$$
