


 29 27  0  0  1  0            999 V2000
    2.6864    0.4807    5.1543 C   0  0  0  0  0  0
    1.4581   -0.3827    4.8968 C   0  0  0  0  0  0
    0.1755    0.4360    4.8315 C   0  0  0  0  0  0
   -1.0688   -0.4144    4.6146 C   0  0  0  0  0  0
   -2.3356    0.4259    4.5245 C   0  0  0  0  0  0
    2.8032    1.2351    4.3756 H   0  0  0  0  0  0
    2.6003    1.0056    6.1060 H   0  0  0  0  0  0
    3.5984   -0.1135    5.1811 H   0  0  0  0  0  0
    1.3635   -1.1281    5.6898 H   0  0  0  0  0  0
    1.5745   -0.9361    3.9629 H   0  0  0  0  0  0
    0.0640    1.0137    5.7545 H   0  0  0  0  0  0
    0.2548    1.1688    4.0218 H   0  0  0  0  0  0
   -1.1596   -1.1289    5.4360 H   0  0  0  0  0  0
   -0.9410   -1.0033    3.7044 H   0  0  0  0  0  0
   -2.2687    1.1330    3.6967 H   0  0  0  0  0  0
   -3.2210   -0.1901    4.3706 H   0  0  0  0  0  0
   -2.4860    1.0021    5.4377 H   0  0  0  0  0  0
   -2.0598   -0.5774    0.6801 C   0  0  0  0  0  0
   -0.9500    0.3449    0.7739 N   0  0  0  0  0  0
    0.3267   -0.0777    0.9882 C   0  0  0  0  0  0
    0.6188   -1.2525    1.1713 O   0  0  0  0  0  0
    1.3722    1.0125    0.9708 C   0  0  0  0  0  0
   -1.6694   -1.5668    0.8972 H   0  0  0  0  0  0
   -2.8346   -0.3314    1.4037 H   0  0  0  0  0  0
   -2.4910   -0.5789   -0.3199 H   0  0  0  0  0  0
   -1.1047    1.3220    0.6061 H   0  0  0  0  0  0
    0.9522    2.0141    1.0331 H   0  0  0  0  0  0
    1.9474    0.9265    0.0507 H   0  0  0  0  0  0
    2.0517    0.8518    1.8030 H   0  0  0  0  0  0
  1  2  1  0  0  0
  2  3  1  0  0  0
  3  4  1  0  0  0
  4  5  1  0  0  0
  1  6  1  0  0  0
  1  7  1  0  0  0
  1  8  1  0  0  0
  2  9  1  0  0  0
  2 10  1  0  0  0
  3 11  1  0  0  0
  3 12  1  0  0  0
  4 13  1  0  0  0
  4 14  1  0  0  0
  5 15  1  0  0  0
  5 16  1  0  0  0
  5 17  1  0  0  0
 18 19  1  0  0  0
 19 20  1  0  0  0
 20 21  2  0  0  0
 20 22  1  0  0  0
 18 23  1  0  0  0
 18 24  1  0  0  0
 18 25  1  0  0  0
 19 26  1  0  0  0
 22 27  1  0  0  0
 22 28  1  0  0  0
 22 29  1  0  0  0
M  END
$$$$
