


 29 27  0  0  1  0            999 V2000
    2.7183    0.5031    5.5290 C   0  0  0  0  0  0
    1.4901   -0.3603    5.2715 C   0  0  0  0  0  0
    0.2075    0.4584    5.2062 C   0  0  0  0  0  0
   -1.0368   -0.3920    4.9893 C   0  0  0  0  0  0
   -2.3037    0.4483    4.8992 C   0  0  0  0  0  0
    2.8352    1.2575    4.7503 H   0  0  0  0  0  0
    2.6322    1.0280    6.4807 H   0  0  0  0  0  0
    3.6304   -0.0911    5.5559 H   0  0  0  0  0  0
    1.3955   -1.1057    6.0645 H   0  0  0  0  0  0
    1.6065   -0.9137    4.3377 H   0  0  0  0  0  0
    0.0960    1.0361    6.1293 H   0  0  0  0  0  0
    0.2868    1.1912    4.3966 H   0  0  0  0  0  0
   -1.1276   -1.1065    5.8107 H   0  0  0  0  0  0
   -0.9090   -0.9809    4.0791 H   0  0  0  0  0  0
   -2.2367    1.1553    4.0714 H   0  0  0  0  0  0
   -3.1890   -0.1677    4.7454 H   0  0  0  0  0  0
   -2.4540    1.0245    5.8124 H   0  0  0  0  0  0
   -2.0598   -0.5774    0.6801 C   0  0  0  0  0  0
   -0.9500    0.3449    0.7739 N   0  0  0  0  0  0
    0.3267   -0.0777    0.9882 C   0  0  0  0  0  0
    0.6188   -1.2525    1.1713 O   0  0  0  0  0  0
    1.3722    1.0125    0.9708 C   0  0  0  0  0  0
   -1.6694   -1.5668    0.8972 H   0  0  0  0  0  0
   -2.8346   -0.3314    1.4037 H   0  0  0  0  0  0
   -2.4910   -0.5789   -0.3199 H   0  0  0  0  0  0
   -1.1047    1.3220    0.6061 H   0  0  0  0  0  0
    0.9522    2.0141    1.0331 H   0  0  0  0  0  0
    1.9474    0.9265    0.0507 H   0  0  0  0  0  0
    2.0517    0.8518    1.8030 H   0  0  0  0  0  0
  1  2  1  0  0  0
  2  3  1  0  0  0
  3  4  1  0  0  0
  4  5  1  0  0  0
  1  6  1  0  0  0
  1  7  1  0  0  0
  1  8  1  0  0  0
  2  9  1  0  0  0
  2 10  1  0  0  0
  3 11  1  0  0  0
  3 12  1  0  0  0
  4 13  1  0  0  0
  4 14  1  0  0  0
  5 15  1  0  0  0
  5 16  1  0  0  0
  5 17  1  0  0  0
 18 19  1  0  0  0
 19 20  1  0  0  0
 20 21  2  0  0  0
 20 22  1  0  0  0
 18 23  1  0  0  0
 18 24  1  0  0  0
 18 25  1  0  0  0
 19 26  1  0  0  0
 22 27  1  0  0  0
 22 28  1  0  0  0
 22 29  1  0  0  0
M  END
$$$$
