


 34 32  0  0  1  0            999 V2000
    0.0004   -0.0339    8.2488 C   0  0  0  0  0  0
   -0.0007    0.1063    6.7291 C   0  0  0  0  0  0
   -1.2401   -0.5754    6.1552 C   0  0  0  0  0  0
    1.2520   -0.5513    6.1556 C   0  0  0  0  0  0
   -0.0149    1.5861    6.3544 C   0  0  0  0  0  0
   -0.8866    0.4302    8.6822 H   0  0  0  0  0  0
    0.0097   -1.0847    8.5418 H   0  0  0  0  0  0
    0.8791    0.4458    8.6824 H   0  0  0  0  0  0
   -1.2634   -0.4864    5.0683 H   0  0  0  0  0  0
   -1.2522   -1.6367    6.4082 H   0  0  0  0  0  0
   -2.1511   -0.1231    6.5503 H   0  0  0  0  0  0
    1.2733   -0.4630    5.0686 H   0  0  0  0  0  0
    1.2851   -1.6118    6.4097 H   0  0  0  0  0  0
    2.1538   -0.0806    6.5500 H   0  0  0  0  0  0
    0.8629    2.0966    6.7534 H   0  0  0  0  0  0
   -0.0154    1.7125    5.2708 H   0  0  0  0  0  0
   -0.9030    2.0794    6.7522 H   0  0  0  0  0  0
   -2.5304   -0.4176    0.6813 C   0  0  0  0  0  0
   -1.2762    0.4436    0.7500 C   0  0  0  0  0  0
    0.0022   -0.3807    0.6790 C   0  0  0  0  0  0
    1.2683    0.4624    0.7494 C   0  0  0  0  0  0
    2.5350   -0.3804    0.6807 C   0  0  0  0  0  0
   -2.5599   -0.9828   -0.2502 H   0  0  0  0  0  0
   -2.5540   -1.1339    1.5027 H   0  0  0  0  0  0
   -3.4362    0.1841    0.7368 H   0  0  0  0  0  0
   -1.2781    1.0252    1.6751 H   0  0  0  0  0  0
   -1.2803    1.1686   -0.0672 H   0  0  0  0  0  0
    0.0078   -1.1114    1.4938 H   0  0  0  0  0  0
    0.0063   -0.9605   -0.2488 H   0  0  0  0  0  0
    1.2620    1.0443    1.6743 H   0  0  0  0  0  0
    1.2616    1.1871   -0.0680 H   0  0  0  0  0  0
    2.5724   -0.9457   -0.2504 H   0  0  0  0  0  0
    3.4320    0.2344    0.7356 H   0  0  0  0  0  0
    2.5692   -1.0958    1.5025 H   0  0  0  0  0  0
  1  2  1  0  0  0
  2  3  1  0  0  0
  2  4  1  0  0  0
  2  5  1  0  0  0
  1  6  1  0  0  0
  1  7  1  0  0  0
  1  8  1  0  0  0
  3  9  1  0  0  0
  3 10  1  0  0  0
  3 11  1  0  0  0
  4 12  1  0  0  0
  4 13  1  0  0  0
  4 14  1  0  0  0
  5 15  1  0  0  0
  5 16  1  0  0  0
  5 17  1  0  0  0
 18 19  1  0  0  0
 19 20  1  0  0  0
 20 21  1  0  0  0
 21 22  1  0  0  0
 18 23  1  0  0  0
 18 24  1  0  0  0
 18 25  1  0  0  0
 19 26  1  0  0  0
 19 27  1  0  0  0
 20 28  1  0  0  0
 20 29  1  0  0  0
 21 30  1  0  0  0
 21 31  1  0  0  0
 22 32  1  0  0  0
 22 33  1  0  0  0
 22 34  1  0  0  0
M  END
$$$$
