


 34 32  0  0  1  0            999 V2000
    0.0005   -0.0755    6.7861 C   0  0  0  0  0  0
   -0.0005    0.0647    5.2663 C   0  0  0  0  0  0
   -1.2400   -0.6170    4.6924 C   0  0  0  0  0  0
    1.2521   -0.5929    4.6929 C   0  0  0  0  0  0
   -0.0148    1.5445    4.8917 C   0  0  0  0  0  0
   -0.8865    0.3886    7.2194 H   0  0  0  0  0  0
    0.0098   -1.1262    7.0791 H   0  0  0  0  0  0
    0.8792    0.4042    7.2197 H   0  0  0  0  0  0
   -1.2633   -0.5280    3.6056 H   0  0  0  0  0  0
   -1.2521   -1.6782    4.9454 H   0  0  0  0  0  0
   -2.1509   -0.1647    5.0875 H   0  0  0  0  0  0
    1.2734   -0.5046    3.6059 H   0  0  0  0  0  0
    1.2852   -1.6534    4.9469 H   0  0  0  0  0  0
    2.1539   -0.1222    5.0873 H   0  0  0  0  0  0
    0.8630    2.0551    5.2907 H   0  0  0  0  0  0
   -0.0153    1.6709    3.8081 H   0  0  0  0  0  0
   -0.9029    2.0378    5.2895 H   0  0  0  0  0  0
   -2.5304   -0.4176    0.6813 C   0  0  0  0  0  0
   -1.2762    0.4436    0.7500 C   0  0  0  0  0  0
    0.0022   -0.3807    0.6790 C   0  0  0  0  0  0
    1.2683    0.4624    0.7494 C   0  0  0  0  0  0
    2.5350   -0.3804    0.6807 C   0  0  0  0  0  0
   -2.5599   -0.9828   -0.2502 H   0  0  0  0  0  0
   -2.5540   -1.1339    1.5027 H   0  0  0  0  0  0
   -3.4362    0.1841    0.7368 H   0  0  0  0  0  0
   -1.2781    1.0252    1.6751 H   0  0  0  0  0  0
   -1.2803    1.1686   -0.0672 H   0  0  0  0  0  0
    0.0078   -1.1114    1.4938 H   0  0  0  0  0  0
    0.0063   -0.9605   -0.2488 H   0  0  0  0  0  0
    1.2620    1.0443    1.6743 H   0  0  0  0  0  0
    1.2616    1.1871   -0.0680 H   0  0  0  0  0  0
    2.5724   -0.9457   -0.2504 H   0  0  0  0  0  0
    3.4320    0.2344    0.7356 H   0  0  0  0  0  0
    2.5692   -1.0958    1.5025 H   0  0  0  0  0  0
  1  2  1  0  0  0
  2  3  1  0  0  0
  2  4  1  0  0  0
  2  5  1  0  0  0
  1  6  1  0  0  0
  1  7  1  0  0  0
  1  8  1  0  0  0
  3  9  1  0  0  0
  3 10  1  0  0  0
  3 11  1  0  0  0
  4 12  1  0  0  0
  4 13  1  0  0  0
  4 14  1  0  0  0
  5 15  1  0  0  0
  5 16  1  0  0  0
  5 17  1  0  0  0
 18 19  1  0  0  0
 19 20  1  0  0  0
 20 21  1  0  0  0
 21 22  1  0  0  0
 18 23  1  0  0  0
 18 24  1  0  0  0
 18 25  1  0  0  0
 19 26  1  0  0  0
 19 27  1  0  0  0
 20 28  1  0  0  0
 20 29  1  0  0  0
 21 30  1  0  0  0
 21 31  1  0  0  0
 22 32  1  0  0  0
 22 33  1  0  0  0
 22 34  1  0  0  0
M  END
$$$$
