


 34 32  0  0  1  0            999 V2000
    0.0005   -0.0665    7.1009 C   0  0  0  0  0  0
   -0.0005    0.0736    5.5812 C   0  0  0  0  0  0
   -1.2400   -0.6080    5.0073 C   0  0  0  0  0  0
    1.2521   -0.5839    5.0077 C   0  0  0  0  0  0
   -0.0148    1.5534    5.2066 C   0  0  0  0  0  0
   -0.8865    0.3976    7.5343 H   0  0  0  0  0  0
    0.0098   -1.1173    7.3939 H   0  0  0  0  0  0
    0.8792    0.4132    7.5346 H   0  0  0  0  0  0
   -1.2633   -0.5191    3.9204 H   0  0  0  0  0  0
   -1.2521   -1.6693    5.2603 H   0  0  0  0  0  0
   -2.1509   -0.1557    5.4024 H   0  0  0  0  0  0
    1.2734   -0.4956    3.9207 H   0  0  0  0  0  0
    1.2852   -1.6445    5.2618 H   0  0  0  0  0  0
    2.1539   -0.1133    5.4021 H   0  0  0  0  0  0
    0.8630    2.0640    5.6055 H   0  0  0  0  0  0
   -0.0153    1.6799    4.1229 H   0  0  0  0  0  0
   -0.9029    2.0468    5.6043 H   0  0  0  0  0  0
   -2.5304   -0.4176    0.6813 C   0  0  0  0  0  0
   -1.2762    0.4436    0.7500 C   0  0  0  0  0  0
    0.0022   -0.3807    0.6790 C   0  0  0  0  0  0
    1.2683    0.4624    0.7494 C   0  0  0  0  0  0
    2.5350   -0.3804    0.6807 C   0  0  0  0  0  0
   -2.5599   -0.9828   -0.2502 H   0  0  0  0  0  0
   -2.5540   -1.1339    1.5027 H   0  0  0  0  0  0
   -3.4362    0.1841    0.7368 H   0  0  0  0  0  0
   -1.2781    1.0252    1.6751 H   0  0  0  0  0  0
   -1.2803    1.1686   -0.0672 H   0  0  0  0  0  0
    0.0078   -1.1114    1.4938 H   0  0  0  0  0  0
    0.0063   -0.9605   -0.2488 H   0  0  0  0  0  0
    1.2620    1.0443    1.6743 H   0  0  0  0  0  0
    1.2616    1.1871   -0.0680 H   0  0  0  0  0  0
    2.5724   -0.9457   -0.2504 H   0  0  0  0  0  0
    3.4320    0.2344    0.7356 H   0  0  0  0  0  0
    2.5692   -1.0958    1.5025 H   0  0  0  0  0  0
  1  2  1  0  0  0
  2  3  1  0  0  0
  2  4  1  0  0  0
  2  5  1  0  0  0
  1  6  1  0  0  0
  1  7  1  0  0  0
  1  8  1  0  0  0
  3  9  1  0  0  0
  3 10  1  0  0  0
  3 11  1  0  0  0
  4 12  1  0  0  0
  4 13  1  0  0  0
  4 14  1  0  0  0
  5 15  1  0  0  0
  5 16  1  0  0  0
  5 17  1  0  0  0
 18 19  1  0  0  0
 19 20  1  0  0  0
 20 21  1  0  0  0
 21 22  1  0  0  0
 18 23  1  0  0  0
 18 24  1  0  0  0
 18 25  1  0  0  0
 19 26  1  0  0  0
 19 27  1  0  0  0
 20 28  1  0  0  0
 20 29  1  0  0  0
 21 30  1  0  0  0
 21 31  1  0  0  0
 22 32  1  0  0  0
 22 33  1  0  0  0
 22 34  1  0  0  0
M  END
$$$$
