


 34 32  0  0  1  0            999 V2000
    0.0003    0.0041    9.5834 C   0  0  0  0  0  0
   -0.0008    0.1442    8.0636 C   0  0  0  0  0  0
   -1.2402   -0.5375    7.4897 C   0  0  0  0  0  0
    1.2518   -0.5134    7.4902 C   0  0  0  0  0  0
   -0.0150    1.6240    7.6890 C   0  0  0  0  0  0
   -0.8867    0.4681   10.0167 H   0  0  0  0  0  0
    0.0096   -1.0467    9.8764 H   0  0  0  0  0  0
    0.8790    0.4837   10.0170 H   0  0  0  0  0  0
   -1.2635   -0.4485    6.4029 H   0  0  0  0  0  0
   -1.2523   -1.5987    7.7427 H   0  0  0  0  0  0
   -2.1512   -0.0852    7.8848 H   0  0  0  0  0  0
    1.2732   -0.4251    6.4032 H   0  0  0  0  0  0
    1.2850   -1.5739    7.7442 H   0  0  0  0  0  0
    2.1537   -0.0427    7.8846 H   0  0  0  0  0  0
    0.8627    2.1346    8.0880 H   0  0  0  0  0  0
   -0.0155    1.7504    6.6054 H   0  0  0  0  0  0
   -0.9031    2.1173    8.0868 H   0  0  0  0  0  0
   -2.5304   -0.4176    0.6813 C   0  0  0  0  0  0
   -1.2762    0.4436    0.7500 C   0  0  0  0  0  0
    0.0022   -0.3807    0.6790 C   0  0  0  0  0  0
    1.2683    0.4624    0.7494 C   0  0  0  0  0  0
    2.5350   -0.3804    0.6807 C   0  0  0  0  0  0
   -2.5599   -0.9828   -0.2502 H   0  0  0  0  0  0
   -2.5540   -1.1339    1.5027 H   0  0  0  0  0  0
   -3.4362    0.1841    0.7368 H   0  0  0  0  0  0
   -1.2781    1.0252    1.6751 H   0  0  0  0  0  0
   -1.2803    1.1686   -0.0672 H   0  0  0  0  0  0
    0.0078   -1.1114    1.4938 H   0  0  0  0  0  0
    0.0063   -0.9605   -0.2488 H   0  0  0  0  0  0
    1.2620    1.0443    1.6743 H   0  0  0  0  0  0
    1.2616    1.1871   -0.0680 H   0  0  0  0  0  0
    2.5724   -0.9457   -0.2504 H   0  0  0  0  0  0
    3.4320    0.2344    0.7356 H   0  0  0  0  0  0
    2.5692   -1.0958    1.5025 H   0  0  0  0  0  0
  1  2  1  0  0  0
  2  3  1  0  0  0
  2  4  1  0  0  0
  2  5  1  0  0  0
  1  6  1  0  0  0
  1  7  1  0  0  0
  1  8  1  0  0  0
  3  9  1  0  0  0
  3 10  1  0  0  0
  3 11  1  0  0  0
  4 12  1  0  0  0
  4 13  1  0  0  0
  4 14  1  0  0  0
  5 15  1  0  0  0
  5 16  1  0  0  0
  5 17  1  0  0  0
 18 19  1  0  0  0
 19 20  1  0  0  0
 20 21  1  0  0  0
 21 22  1  0  0  0
 18 23  1  0  0  0
 18 24  1  0  0  0
 18 25  1  0  0  0
 19 26  1  0  0  0
 19 27  1  0  0  0
 20 28  1  0  0  0
 20 29  1  0  0  0
 21 30  1  0  0  0
 21 31  1  0  0  0
 22 32  1  0  0  0
 22 33  1  0  0  0
 22 34  1  0  0  0
M  END
$$$$
