


 34 32  0  0  1  0            999 V2000
    0.0006   -0.0851    6.4472 C   0  0  0  0  0  0
   -0.0005    0.0551    4.9275 C   0  0  0  0  0  0
   -1.2399   -0.6266    4.3535 C   0  0  0  0  0  0
    1.2521   -0.6025    4.3540 C   0  0  0  0  0  0
   -0.0147    1.5348    4.5528 C   0  0  0  0  0  0
   -0.8865    0.3790    6.8805 H   0  0  0  0  0  0
    0.0098   -1.1359    6.7402 H   0  0  0  0  0  0
    0.8792    0.3946    6.8808 H   0  0  0  0  0  0
   -1.2632   -0.5376    3.2667 H   0  0  0  0  0  0
   -1.2520   -1.6879    4.6066 H   0  0  0  0  0  0
   -2.1509   -0.1743    4.7486 H   0  0  0  0  0  0
    1.2734   -0.5142    3.2670 H   0  0  0  0  0  0
    1.2852   -1.6631    4.6081 H   0  0  0  0  0  0
    2.1539   -0.1319    4.7484 H   0  0  0  0  0  0
    0.8630    2.0454    4.9518 H   0  0  0  0  0  0
   -0.0153    1.6613    3.4692 H   0  0  0  0  0  0
   -0.9028    2.0282    4.9506 H   0  0  0  0  0  0
   -2.5304   -0.4176    0.6813 C   0  0  0  0  0  0
   -1.2762    0.4436    0.7500 C   0  0  0  0  0  0
    0.0022   -0.3807    0.6790 C   0  0  0  0  0  0
    1.2683    0.4624    0.7494 C   0  0  0  0  0  0
    2.5350   -0.3804    0.6807 C   0  0  0  0  0  0
   -2.5599   -0.9828   -0.2502 H   0  0  0  0  0  0
   -2.5540   -1.1339    1.5027 H   0  0  0  0  0  0
   -3.4362    0.1841    0.7368 H   0  0  0  0  0  0
   -1.2781    1.0252    1.6751 H   0  0  0  0  0  0
   -1.2803    1.1686   -0.0672 H   0  0  0  0  0  0
    0.0078   -1.1114    1.4938 H   0  0  0  0  0  0
    0.0063   -0.9605   -0.2488 H   0  0  0  0  0  0
    1.2620    1.0443    1.6743 H   0  0  0  0  0  0
    1.2616    1.1871   -0.0680 H   0  0  0  0  0  0
    2.5724   -0.9457   -0.2504 H   0  0  0  0  0  0
    3.4320    0.2344    0.7356 H   0  0  0  0  0  0
    2.5692   -1.0958    1.5025 H   0  0  0  0  0  0
  1  2  1  0  0  0
  2  3  1  0  0  0
  2  4  1  0  0  0
  2  5  1  0  0  0
  1  6  1  0  0  0
  1  7  1  0  0  0
  1  8  1  0  0  0
  3  9  1  0  0  0
  3 10  1  0  0  0
  3 11  1  0  0  0
  4 12  1  0  0  0
  4 13  1  0  0  0
  4 14  1  0  0  0
  5 15  1  0  0  0
  5 16  1  0  0  0
  5 17  1  0  0  0
 18 19  1  0  0  0
 19 20  1  0  0  0
 20 21  1  0  0  0
 21 22  1  0  0  0
 18 23  1  0  0  0
 18 24  1  0  0  0
 18 25  1  0  0  0
 19 26  1  0  0  0
 19 27  1  0  0  0
 20 28  1  0  0  0
 20 29  1  0  0  0
 21 30  1  0  0  0
 21 31  1  0  0  0
 22 32  1  0  0  0
 22 33  1  0  0  0
 22 34  1  0  0  0
M  END
$$$$
