


 10  8  0  0  1  0            999 V2000
    2.7428    1.4056   -0.0351 C   0  0  0  0  0  0
    2.0835    0.0972    0.0051 N   0  0  0  0  0  0
    2.4323    1.9873    0.8294 H   0  0  0  0  0  0
    3.8341    1.3663   -0.0441 H   0  0  0  0  0  0
    2.4161    1.9415   -0.9229 H   0  0  0  0  0  0
    2.3788   -0.4554   -0.7897 H   0  0  0  0  0  0
    2.3936   -0.4135    0.8220 H   0  0  0  0  0  0
   -0.6875   -0.1117   -0.0196 O   0  0  0  0  0  0
   -1.0461    0.7759    0.0127 H   0  0  0  0  0  0
    0.2740    0.0258   -0.0035 H   0  0  0  0  0  0
  1  2  1  0  0  0
  1  3  1  0  0  0
  1  4  1  0  0  0
  1  5  1  0  0  0
  2  6  1  0  0  0
  2  7  1  0  0  0
  8  9  1  0  0  0
  8 10  1  0  0  0
M  END
$$$$
