


 10  8  0  0  1  0            999 V2000
    3.4464    1.4334   -0.0318 C   0  0  0  0  0  0
    2.7871    0.1250    0.0085 N   0  0  0  0  0  0
    3.1359    2.0151    0.8328 H   0  0  0  0  0  0
    4.5378    1.3941   -0.0407 H   0  0  0  0  0  0
    3.1197    1.9693   -0.9196 H   0  0  0  0  0  0
    3.0825   -0.4276   -0.7863 H   0  0  0  0  0  0
    3.0972   -0.3857    0.8253 H   0  0  0  0  0  0
   -0.6875   -0.1117   -0.0196 O   0  0  0  0  0  0
   -1.0461    0.7759    0.0127 H   0  0  0  0  0  0
    0.2740    0.0258   -0.0035 H   0  0  0  0  0  0
  1  2  1  0  0  0
  1  3  1  0  0  0
  1  4  1  0  0  0
  1  5  1  0  0  0
  2  6  1  0  0  0
  2  7  1  0  0  0
  8  9  1  0  0  0
  8 10  1  0  0  0
M  END
$$$$
