


 10  8  0  0  1  0            999 V2000
    2.9437    1.4135   -0.0342 C   0  0  0  0  0  0
    2.2844    0.1052    0.0061 N   0  0  0  0  0  0
    2.6332    1.9953    0.8304 H   0  0  0  0  0  0
    4.0351    1.3742   -0.0431 H   0  0  0  0  0  0
    2.6170    1.9495   -0.9220 H   0  0  0  0  0  0
    2.5798   -0.4475   -0.7887 H   0  0  0  0  0  0
    2.5945   -0.4056    0.8230 H   0  0  0  0  0  0
   -0.6875   -0.1117   -0.0196 O   0  0  0  0  0  0
   -1.0461    0.7759    0.0127 H   0  0  0  0  0  0
    0.2740    0.0258   -0.0035 H   0  0  0  0  0  0
  1  2  1  0  0  0
  1  3  1  0  0  0
  1  4  1  0  0  0
  1  5  1  0  0  0
  2  6  1  0  0  0
  2  7  1  0  0  0
  8  9  1  0  0  0
  8 10  1  0  0  0
M  END
$$$$
