


 10  8  0  0  1  0            999 V2000
   -1.0169    0.5885    1.1874 C   0  0  0  0  0  0
   -0.5335   -0.2796    0.1070 N   0  0  0  0  0  0
   -0.9128    1.6256    0.8795 H   0  0  0  0  0  0
   -2.0547    0.4151    1.4785 H   0  0  0  0  0  0
   -0.3850    0.4488    2.0606 H   0  0  0  0  0  0
   -0.6291   -1.2484    0.3828 H   0  0  0  0  0  0
   -1.1226   -0.1662   -0.7078 H   0  0  0  0  0  0
    2.2213    0.9669    0.2073 O   0  0  0  0  0  0
    1.4038    0.4706    0.0341 H   0  0  0  0  0  0
    2.8032    0.7084   -0.5085 H   0  0  0  0  0  0
  1  2  1  0  0  0
  1  3  1  0  0  0
  1  4  1  0  0  0
  1  5  1  0  0  0
  2  6  1  0  0  0
  2  7  1  0  0  0
  8  9  1  0  0  0
  8 10  1  0  0  0
M  END
$$$$
