


 10  8  0  0  1  0            999 V2000
    2.8433    1.4096   -0.0346 C   0  0  0  0  0  0
    2.1840    0.1012    0.0056 N   0  0  0  0  0  0
    2.5328    1.9913    0.8299 H   0  0  0  0  0  0
    3.9346    1.3703   -0.0436 H   0  0  0  0  0  0
    2.5166    1.9455   -0.9225 H   0  0  0  0  0  0
    2.4794   -0.4514   -0.7892 H   0  0  0  0  0  0
    2.4941   -0.4095    0.8225 H   0  0  0  0  0  0
   -0.6875   -0.1117   -0.0196 O   0  0  0  0  0  0
   -1.0461    0.7759    0.0127 H   0  0  0  0  0  0
    0.2740    0.0258   -0.0035 H   0  0  0  0  0  0
  1  2  1  0  0  0
  1  3  1  0  0  0
  1  4  1  0  0  0
  1  5  1  0  0  0
  2  6  1  0  0  0
  2  7  1  0  0  0
  8  9  1  0  0  0
  8 10  1  0  0  0
M  END
$$$$
