


 10  8  0  0  1  0            999 V2000
    3.0444    1.4175   -0.0337 C   0  0  0  0  0  0
    2.3850    0.1091    0.0066 N   0  0  0  0  0  0
    2.7338    1.9992    0.8309 H   0  0  0  0  0  0
    4.1357    1.3782   -0.0426 H   0  0  0  0  0  0
    2.7177    1.9534   -0.9215 H   0  0  0  0  0  0
    2.6804   -0.4435   -0.7882 H   0  0  0  0  0  0
    2.6951   -0.4016    0.8234 H   0  0  0  0  0  0
   -0.6875   -0.1117   -0.0196 O   0  0  0  0  0  0
   -1.0461    0.7759    0.0127 H   0  0  0  0  0  0
    0.2740    0.0258   -0.0035 H   0  0  0  0  0  0
  1  2  1  0  0  0
  1  3  1  0  0  0
  1  4  1  0  0  0
  1  5  1  0  0  0
  2  6  1  0  0  0
  2  7  1  0  0  0
  8  9  1  0  0  0
  8 10  1  0  0  0
M  END
$$$$
