


 10  8  0  0  1  0            999 V2000
   -1.0169    0.5885    1.1874 C   0  0  0  0  0  0
   -0.5335   -0.2796    0.1070 N   0  0  0  0  0  0
   -0.9128    1.6256    0.8795 H   0  0  0  0  0  0
   -2.0547    0.4151    1.4785 H   0  0  0  0  0  0
   -0.3850    0.4488    2.0606 H   0  0  0  0  0  0
   -0.6291   -1.2484    0.3828 H   0  0  0  0  0  0
   -1.1226   -0.1662   -0.7078 H   0  0  0  0  0  0
    2.1289    0.9311    0.2108 O   0  0  0  0  0  0
    1.3114    0.4349    0.0376 H   0  0  0  0  0  0
    2.7108    0.6726   -0.5050 H   0  0  0  0  0  0
  1  2  1  0  0  0
  1  3  1  0  0  0
  1  4  1  0  0  0
  1  5  1  0  0  0
  2  6  1  0  0  0
  2  7  1  0  0  0
  8  9  1  0  0  0
  8 10  1  0  0  0
M  END
$$$$
