


 10  8  0  0  1  0            999 V2000
    3.9490    1.4532   -0.0293 C   0  0  0  0  0  0
    3.2897    0.1448    0.0109 N   0  0  0  0  0  0
    3.6385    2.0349    0.8352 H   0  0  0  0  0  0
    5.0403    1.4139   -0.0383 H   0  0  0  0  0  0
    3.6223    1.9891   -0.9172 H   0  0  0  0  0  0
    3.5851   -0.4078   -0.7839 H   0  0  0  0  0  0
    3.5998   -0.3659    0.8278 H   0  0  0  0  0  0
   -0.6875   -0.1117   -0.0196 O   0  0  0  0  0  0
   -1.0461    0.7759    0.0127 H   0  0  0  0  0  0
    0.2740    0.0258   -0.0035 H   0  0  0  0  0  0
  1  2  1  0  0  0
  1  3  1  0  0  0
  1  4  1  0  0  0
  1  5  1  0  0  0
  2  6  1  0  0  0
  2  7  1  0  0  0
  8  9  1  0  0  0
  8 10  1  0  0  0
M  END
$$$$
