


 10  8  0  0  1  0            999 V2000
    3.1449    1.4215   -0.0332 C   0  0  0  0  0  0
    2.4856    0.1131    0.0071 N   0  0  0  0  0  0
    2.8344    2.0032    0.8313 H   0  0  0  0  0  0
    4.2362    1.3822   -0.0421 H   0  0  0  0  0  0
    2.8182    1.9574   -0.9210 H   0  0  0  0  0  0
    2.7809   -0.4395   -0.7877 H   0  0  0  0  0  0
    2.7956   -0.3976    0.8239 H   0  0  0  0  0  0
   -0.6875   -0.1117   -0.0196 O   0  0  0  0  0  0
   -1.0461    0.7759    0.0127 H   0  0  0  0  0  0
    0.2740    0.0258   -0.0035 H   0  0  0  0  0  0
  1  2  1  0  0  0
  1  3  1  0  0  0
  1  4  1  0  0  0
  1  5  1  0  0  0
  2  6  1  0  0  0
  2  7  1  0  0  0
  8  9  1  0  0  0
  8 10  1  0  0  0
M  END
$$$$
