


 10  8  0  0  1  0            999 V2000
    4.9542    1.4929   -0.0246 C   0  0  0  0  0  0
    4.2949    0.1845    0.0157 N   0  0  0  0  0  0
    4.6437    2.0746    0.8400 H   0  0  0  0  0  0
    6.0455    1.4536   -0.0335 H   0  0  0  0  0  0
    4.6275    2.0288   -0.9124 H   0  0  0  0  0  0
    4.5903   -0.3681   -0.7791 H   0  0  0  0  0  0
    4.6050   -0.3262    0.8325 H   0  0  0  0  0  0
   -0.6875   -0.1117   -0.0196 O   0  0  0  0  0  0
   -1.0461    0.7759    0.0127 H   0  0  0  0  0  0
    0.2740    0.0258   -0.0035 H   0  0  0  0  0  0
  1  2  1  0  0  0
  1  3  1  0  0  0
  1  4  1  0  0  0
  1  5  1  0  0  0
  2  6  1  0  0  0
  2  7  1  0  0  0
  8  9  1  0  0  0
  8 10  1  0  0  0
M  END
$$$$
