


 32 31  0  0  1  0            999 V2000
    0.7999   -1.0221    0.6877 C   0  0  0  0  0  0
    1.1169    0.4250    1.0997 C   0  0  0  0  0  0
   -0.2446    1.1657    1.1030 C   0  0  0  0  0  0
   -1.2987    0.1038    0.7393 C   0  0  0  0  0  0
   -0.6469   -1.2201    1.1363 C   0  0  0  0  0  0
    0.8536   -1.1221   -0.3980 H   0  0  0  0  0  0
    1.4914   -1.7442    1.1197 H   0  0  0  0  0  0
    1.8381    0.8902    0.4304 H   0  0  0  0  0  0
    1.5556    0.4398    2.0971 H   0  0  0  0  0  0
   -0.2581    2.0009    0.4053 H   0  0  0  0  0  0
   -0.4488    1.5770    2.0910 H   0  0  0  0  0  0
   -1.4736    0.1052   -0.3380 H   0  0  0  0  0  0
   -2.2567    0.2780    1.2272 H   0  0  0  0  0  0
   -1.1244   -2.0876    0.6830 H   0  0  0  0  0  0
   -0.6860   -1.3453    2.2202 H   0  0  0  0  0  0
   -0.0541   -0.0728    6.7897 C   0  0  0  0  0  0
    0.0422    0.0793    5.2740 C   0  0  0  0  0  0
    0.7563    1.3862    4.9384 C   0  0  0  0  0  0
   -1.3628    0.0992    4.6767 C   0  0  0  0  0  0
    0.8301   -1.0942    4.6967 C   0  0  0  0  0  0
    0.9384   -0.0882    7.2420 H   0  0  0  0  0  0
   -0.6131    0.7551    7.2281 H   0  0  0  0  0  0
   -0.5613   -1.0014    7.0550 H   0  0  0  0  0  0
    0.8378    1.5197    3.8587 H   0  0  0  0  0  0
    0.2128    2.2409    5.3439 H   0  0  0  0  0  0
    1.7639    1.3969    5.3566 H   0  0  0  0  0  0
   -1.3259    0.2163    3.5928 H   0  0  0  0  0  0
   -1.9451    0.9266    5.0850 H   0  0  0  0  0  0
   -1.8927   -0.8286    4.8980 H   0  0  0  0  0  0
    0.3349   -2.0412    4.9169 H   0  0  0  0  0  0
    0.9250   -1.0070    3.6135 H   0  0  0  0  0  0
    1.8348   -1.1316    5.1204 H   0  0  0  0  0  0
  1  2  1  0  0  0
  2  3  1  0  0  0
  3  4  1  0  0  0
  4  5  1  0  0  0
  1  5  1  0  0  0
  1  6  1  0  0  0
  1  7  1  0  0  0
  2  8  1  0  0  0
  2  9  1  0  0  0
  3 10  1  0  0  0
  3 11  1  0  0  0
  4 12  1  0  0  0
  4 13  1  0  0  0
  5 14  1  0  0  0
  5 15  1  0  0  0
 16 17  1  0  0  0
 17 18  1  0  0  0
 17 19  1  0  0  0
 17 20  1  0  0  0
 16 21  1  0  0  0
 16 22  1  0  0  0
 16 23  1  0  0  0
 18 24  1  0  0  0
 18 25  1  0  0  0
 18 26  1  0  0  0
 19 27  1  0  0  0
 19 28  1  0  0  0
 19 29  1  0  0  0
 20 30  1  0  0  0
 20 31  1  0  0  0
 20 32  1  0  0  0
M  END
$$$$
