


 32 31  0  0  1  0            999 V2000
    0.7999   -1.0221    0.6877 C   0  0  0  0  0  0
    1.1169    0.4250    1.0997 C   0  0  0  0  0  0
   -0.2446    1.1657    1.1030 C   0  0  0  0  0  0
   -1.2987    0.1038    0.7393 C   0  0  0  0  0  0
   -0.6469   -1.2201    1.1363 C   0  0  0  0  0  0
    0.8536   -1.1221   -0.3980 H   0  0  0  0  0  0
    1.4914   -1.7442    1.1197 H   0  0  0  0  0  0
    1.8381    0.8902    0.4304 H   0  0  0  0  0  0
    1.5556    0.4398    2.0971 H   0  0  0  0  0  0
   -0.2581    2.0009    0.4053 H   0  0  0  0  0  0
   -0.4488    1.5770    2.0910 H   0  0  0  0  0  0
   -1.4736    0.1052   -0.3380 H   0  0  0  0  0  0
   -2.2567    0.2780    1.2272 H   0  0  0  0  0  0
   -1.1244   -2.0876    0.6830 H   0  0  0  0  0  0
   -0.6860   -1.3453    2.2202 H   0  0  0  0  0  0
   -0.0431   -0.0512    7.2858 C   0  0  0  0  0  0
    0.0533    0.1009    5.7701 C   0  0  0  0  0  0
    0.7673    1.4078    5.4345 C   0  0  0  0  0  0
   -1.3517    0.1207    5.1728 C   0  0  0  0  0  0
    0.8412   -1.0726    5.1928 C   0  0  0  0  0  0
    0.9495   -0.0667    7.7381 H   0  0  0  0  0  0
   -0.6020    0.7767    7.7242 H   0  0  0  0  0  0
   -0.5502   -0.9799    7.5511 H   0  0  0  0  0  0
    0.8489    1.5413    4.3548 H   0  0  0  0  0  0
    0.2239    2.2625    5.8400 H   0  0  0  0  0  0
    1.7749    1.4184    5.8527 H   0  0  0  0  0  0
   -1.3148    0.2379    4.0890 H   0  0  0  0  0  0
   -1.9340    0.9481    5.5812 H   0  0  0  0  0  0
   -1.8816   -0.8071    5.3941 H   0  0  0  0  0  0
    0.3460   -2.0196    5.4131 H   0  0  0  0  0  0
    0.9360   -0.9854    4.1097 H   0  0  0  0  0  0
    1.8459   -1.1100    5.6165 H   0  0  0  0  0  0
  1  2  1  0  0  0
  2  3  1  0  0  0
  3  4  1  0  0  0
  4  5  1  0  0  0
  1  5  1  0  0  0
  1  6  1  0  0  0
  1  7  1  0  0  0
  2  8  1  0  0  0
  2  9  1  0  0  0
  3 10  1  0  0  0
  3 11  1  0  0  0
  4 12  1  0  0  0
  4 13  1  0  0  0
  5 14  1  0  0  0
  5 15  1  0  0  0
 16 17  1  0  0  0
 17 18  1  0  0  0
 17 19  1  0  0  0
 17 20  1  0  0  0
 16 21  1  0  0  0
 16 22  1  0  0  0
 16 23  1  0  0  0
 18 24  1  0  0  0
 18 25  1  0  0  0
 18 26  1  0  0  0
 19 27  1  0  0  0
 19 28  1  0  0  0
 19 29  1  0  0  0
 20 30  1  0  0  0
 20 31  1  0  0  0
 20 32  1  0  0  0
M  END
$$$$
