


 32 31  0  0  1  0            999 V2000
    0.7999   -1.0221    0.6877 C   0  0  0  0  0  0
    1.1169    0.4250    1.0997 C   0  0  0  0  0  0
   -0.2446    1.1657    1.1030 C   0  0  0  0  0  0
   -1.2987    0.1038    0.7393 C   0  0  0  0  0  0
   -0.6469   -1.2201    1.1363 C   0  0  0  0  0  0
    0.8536   -1.1221   -0.3980 H   0  0  0  0  0  0
    1.4914   -1.7442    1.1197 H   0  0  0  0  0  0
    1.8381    0.8902    0.4304 H   0  0  0  0  0  0
    1.5556    0.4398    2.0971 H   0  0  0  0  0  0
   -0.2581    2.0009    0.4053 H   0  0  0  0  0  0
   -0.4488    1.5770    2.0910 H   0  0  0  0  0  0
   -1.4736    0.1052   -0.3380 H   0  0  0  0  0  0
   -2.2567    0.2780    1.2272 H   0  0  0  0  0  0
   -1.1244   -2.0876    0.6830 H   0  0  0  0  0  0
   -0.6860   -1.3453    2.2202 H   0  0  0  0  0  0
   -0.0503   -0.0652    6.9631 C   0  0  0  0  0  0
    0.0461    0.0869    5.4475 C   0  0  0  0  0  0
    0.7601    1.3938    5.1119 C   0  0  0  0  0  0
   -1.3589    0.1067    4.8502 C   0  0  0  0  0  0
    0.8340   -1.0866    4.8702 C   0  0  0  0  0  0
    0.9423   -0.0807    7.4155 H   0  0  0  0  0  0
   -0.6092    0.7627    7.4016 H   0  0  0  0  0  0
   -0.5574   -0.9939    7.2285 H   0  0  0  0  0  0
    0.8417    1.5273    4.0322 H   0  0  0  0  0  0
    0.2167    2.2485    5.5174 H   0  0  0  0  0  0
    1.7677    1.4044    5.5301 H   0  0  0  0  0  0
   -1.3220    0.2239    3.7663 H   0  0  0  0  0  0
   -1.9412    0.9341    5.2585 H   0  0  0  0  0  0
   -1.8888   -0.8211    5.0715 H   0  0  0  0  0  0
    0.3388   -2.0336    5.0904 H   0  0  0  0  0  0
    0.9288   -0.9994    3.7870 H   0  0  0  0  0  0
    1.8387   -1.1240    5.2939 H   0  0  0  0  0  0
  1  2  1  0  0  0
  2  3  1  0  0  0
  3  4  1  0  0  0
  4  5  1  0  0  0
  1  5  1  0  0  0
  1  6  1  0  0  0
  1  7  1  0  0  0
  2  8  1  0  0  0
  2  9  1  0  0  0
  3 10  1  0  0  0
  3 11  1  0  0  0
  4 12  1  0  0  0
  4 13  1  0  0  0
  5 14  1  0  0  0
  5 15  1  0  0  0
 16 17  1  0  0  0
 17 18  1  0  0  0
 17 19  1  0  0  0
 17 20  1  0  0  0
 16 21  1  0  0  0
 16 22  1  0  0  0
 16 23  1  0  0  0
 18 24  1  0  0  0
 18 25  1  0  0  0
 18 26  1  0  0  0
 19 27  1  0  0  0
 19 28  1  0  0  0
 19 29  1  0  0  0
 20 30  1  0  0  0
 20 31  1  0  0  0
 20 32  1  0  0  0
M  END
$$$$
