


 32 31  0  0  1  0            999 V2000
    0.7999   -1.0221    0.6877 C   0  0  0  0  0  0
    1.1169    0.4250    1.0997 C   0  0  0  0  0  0
   -0.2446    1.1657    1.1030 C   0  0  0  0  0  0
   -1.2987    0.1038    0.7393 C   0  0  0  0  0  0
   -0.6469   -1.2201    1.1363 C   0  0  0  0  0  0
    0.8536   -1.1221   -0.3980 H   0  0  0  0  0  0
    1.4914   -1.7442    1.1197 H   0  0  0  0  0  0
    1.8381    0.8902    0.4304 H   0  0  0  0  0  0
    1.5556    0.4398    2.0971 H   0  0  0  0  0  0
   -0.2581    2.0009    0.4053 H   0  0  0  0  0  0
   -0.4488    1.5770    2.0910 H   0  0  0  0  0  0
   -1.4736    0.1052   -0.3380 H   0  0  0  0  0  0
   -2.2567    0.2780    1.2272 H   0  0  0  0  0  0
   -1.1244   -2.0876    0.6830 H   0  0  0  0  0  0
   -0.6860   -1.3453    2.2202 H   0  0  0  0  0  0
   -0.0146    0.0043    8.5622 C   0  0  0  0  0  0
    0.0818    0.1564    7.0465 C   0  0  0  0  0  0
    0.7958    1.4633    6.7109 C   0  0  0  0  0  0
   -1.3232    0.1762    6.4492 C   0  0  0  0  0  0
    0.8697   -1.0171    6.4692 C   0  0  0  0  0  0
    0.9780   -0.0112    9.0145 H   0  0  0  0  0  0
   -0.5735    0.8322    9.0006 H   0  0  0  0  0  0
   -0.5217   -0.9244    8.8275 H   0  0  0  0  0  0
    0.8773    1.5968    5.6312 H   0  0  0  0  0  0
    0.2524    2.3180    7.1164 H   0  0  0  0  0  0
    1.8034    1.4739    7.1291 H   0  0  0  0  0  0
   -1.2863    0.2934    5.3654 H   0  0  0  0  0  0
   -1.9055    1.0036    6.8576 H   0  0  0  0  0  0
   -1.8531   -0.7516    6.6705 H   0  0  0  0  0  0
    0.3744   -1.9641    6.6894 H   0  0  0  0  0  0
    0.9645   -0.9299    5.3861 H   0  0  0  0  0  0
    1.8744   -1.0545    6.8930 H   0  0  0  0  0  0
  1  2  1  0  0  0
  2  3  1  0  0  0
  3  4  1  0  0  0
  4  5  1  0  0  0
  1  5  1  0  0  0
  1  6  1  0  0  0
  1  7  1  0  0  0
  2  8  1  0  0  0
  2  9  1  0  0  0
  3 10  1  0  0  0
  3 11  1  0  0  0
  4 12  1  0  0  0
  4 13  1  0  0  0
  5 14  1  0  0  0
  5 15  1  0  0  0
 16 17  1  0  0  0
 17 18  1  0  0  0
 17 19  1  0  0  0
 17 20  1  0  0  0
 16 21  1  0  0  0
 16 22  1  0  0  0
 16 23  1  0  0  0
 18 24  1  0  0  0
 18 25  1  0  0  0
 18 26  1  0  0  0
 19 27  1  0  0  0
 19 28  1  0  0  0
 19 29  1  0  0  0
 20 30  1  0  0  0
 20 31  1  0  0  0
 20 32  1  0  0  0
M  END
$$$$
