


 32 31  0  0  1  0            999 V2000
    0.7999   -1.0221    0.6877 C   0  0  0  0  0  0
    1.1169    0.4250    1.0997 C   0  0  0  0  0  0
   -0.2446    1.1657    1.1030 C   0  0  0  0  0  0
   -1.2987    0.1038    0.7393 C   0  0  0  0  0  0
   -0.6469   -1.2201    1.1363 C   0  0  0  0  0  0
    0.8536   -1.1221   -0.3980 H   0  0  0  0  0  0
    1.4914   -1.7442    1.1197 H   0  0  0  0  0  0
    1.8381    0.8902    0.4304 H   0  0  0  0  0  0
    1.5556    0.4398    2.0971 H   0  0  0  0  0  0
   -0.2581    2.0009    0.4053 H   0  0  0  0  0  0
   -0.4488    1.5770    2.0910 H   0  0  0  0  0  0
   -1.4736    0.1052   -0.3380 H   0  0  0  0  0  0
   -2.2567    0.2780    1.2272 H   0  0  0  0  0  0
   -1.1244   -2.0876    0.6830 H   0  0  0  0  0  0
   -0.6860   -1.3453    2.2202 H   0  0  0  0  0  0
   -0.0397   -0.0445    7.4387 C   0  0  0  0  0  0
    0.0567    0.1075    5.9231 C   0  0  0  0  0  0
    0.7707    1.4145    5.5875 C   0  0  0  0  0  0
   -1.3483    0.1274    5.3258 C   0  0  0  0  0  0
    0.8446   -1.0659    5.3457 C   0  0  0  0  0  0
    0.9529   -0.0600    7.8911 H   0  0  0  0  0  0
   -0.5986    0.7833    7.8772 H   0  0  0  0  0  0
   -0.5468   -0.9732    7.7041 H   0  0  0  0  0  0
    0.8523    1.5480    4.5078 H   0  0  0  0  0  0
    0.2273    2.2691    5.9930 H   0  0  0  0  0  0
    1.7783    1.4251    6.0057 H   0  0  0  0  0  0
   -1.3114    0.2446    4.2419 H   0  0  0  0  0  0
   -1.9306    0.9548    5.7341 H   0  0  0  0  0  0
   -1.8782   -0.8004    5.5471 H   0  0  0  0  0  0
    0.3494   -2.0129    5.5660 H   0  0  0  0  0  0
    0.9394   -0.9788    4.2626 H   0  0  0  0  0  0
    1.8493   -1.1033    5.7695 H   0  0  0  0  0  0
  1  2  1  0  0  0
  2  3  1  0  0  0
  3  4  1  0  0  0
  4  5  1  0  0  0
  1  5  1  0  0  0
  1  6  1  0  0  0
  1  7  1  0  0  0
  2  8  1  0  0  0
  2  9  1  0  0  0
  3 10  1  0  0  0
  3 11  1  0  0  0
  4 12  1  0  0  0
  4 13  1  0  0  0
  5 14  1  0  0  0
  5 15  1  0  0  0
 16 17  1  0  0  0
 17 18  1  0  0  0
 17 19  1  0  0  0
 17 20  1  0  0  0
 16 21  1  0  0  0
 16 22  1  0  0  0
 16 23  1  0  0  0
 18 24  1  0  0  0
 18 25  1  0  0  0
 18 26  1  0  0  0
 19 27  1  0  0  0
 19 28  1  0  0  0
 19 29  1  0  0  0
 20 30  1  0  0  0
 20 31  1  0  0  0
 20 32  1  0  0  0
M  END
$$$$
