


 32 31  0  0  1  0            999 V2000
    0.7999   -1.0221    0.6877 C   0  0  0  0  0  0
    1.1169    0.4250    1.0997 C   0  0  0  0  0  0
   -0.2446    1.1657    1.1030 C   0  0  0  0  0  0
   -1.2987    0.1038    0.7393 C   0  0  0  0  0  0
   -0.6469   -1.2201    1.1363 C   0  0  0  0  0  0
    0.8536   -1.1221   -0.3980 H   0  0  0  0  0  0
    1.4914   -1.7442    1.1197 H   0  0  0  0  0  0
    1.8381    0.8902    0.4304 H   0  0  0  0  0  0
    1.5556    0.4398    2.0971 H   0  0  0  0  0  0
   -0.2581    2.0009    0.4053 H   0  0  0  0  0  0
   -0.4488    1.5770    2.0910 H   0  0  0  0  0  0
   -1.4736    0.1052   -0.3380 H   0  0  0  0  0  0
   -2.2567    0.2780    1.2272 H   0  0  0  0  0  0
   -1.1244   -2.0876    0.6830 H   0  0  0  0  0  0
   -0.6860   -1.3453    2.2202 H   0  0  0  0  0  0
   -0.0466   -0.0581    7.1276 C   0  0  0  0  0  0
    0.0498    0.0940    5.6120 C   0  0  0  0  0  0
    0.7638    1.4009    5.2764 C   0  0  0  0  0  0
   -1.3553    0.1138    5.0147 C   0  0  0  0  0  0
    0.8377   -1.0795    5.0347 C   0  0  0  0  0  0
    0.9459   -0.0735    7.5800 H   0  0  0  0  0  0
   -0.6055    0.7698    7.5661 H   0  0  0  0  0  0
   -0.5538   -0.9867    7.3930 H   0  0  0  0  0  0
    0.8453    1.5344    4.1967 H   0  0  0  0  0  0
    0.2203    2.2556    5.6819 H   0  0  0  0  0  0
    1.7714    1.4116    5.6946 H   0  0  0  0  0  0
   -1.3183    0.2310    3.9308 H   0  0  0  0  0  0
   -1.9376    0.9413    5.4230 H   0  0  0  0  0  0
   -1.8852   -0.8139    5.2360 H   0  0  0  0  0  0
    0.3424   -2.0264    5.2549 H   0  0  0  0  0  0
    0.9325   -0.9923    3.9515 H   0  0  0  0  0  0
    1.8424   -1.1169    5.4584 H   0  0  0  0  0  0
  1  2  1  0  0  0
  2  3  1  0  0  0
  3  4  1  0  0  0
  4  5  1  0  0  0
  1  5  1  0  0  0
  1  6  1  0  0  0
  1  7  1  0  0  0
  2  8  1  0  0  0
  2  9  1  0  0  0
  3 10  1  0  0  0
  3 11  1  0  0  0
  4 12  1  0  0  0
  4 13  1  0  0  0
  5 14  1  0  0  0
  5 15  1  0  0  0
 16 17  1  0  0  0
 17 18  1  0  0  0
 17 19  1  0  0  0
 17 20  1  0  0  0
 16 21  1  0  0  0
 16 22  1  0  0  0
 16 23  1  0  0  0
 18 24  1  0  0  0
 18 25  1  0  0  0
 18 26  1  0  0  0
 19 27  1  0  0  0
 19 28  1  0  0  0
 19 29  1  0  0  0
 20 30  1  0  0  0
 20 31  1  0  0  0
 20 32  1  0  0  0
M  END
$$$$
