


 32 31  0  0  1  0            999 V2000
    0.7999   -1.0221    0.6877 C   0  0  0  0  0  0
    1.1169    0.4250    1.0997 C   0  0  0  0  0  0
   -0.2446    1.1657    1.1030 C   0  0  0  0  0  0
   -1.2987    0.1038    0.7393 C   0  0  0  0  0  0
   -0.6469   -1.2201    1.1363 C   0  0  0  0  0  0
    0.8536   -1.1221   -0.3980 H   0  0  0  0  0  0
    1.4914   -1.7442    1.1197 H   0  0  0  0  0  0
    1.8381    0.8902    0.4304 H   0  0  0  0  0  0
    1.5556    0.4398    2.0971 H   0  0  0  0  0  0
   -0.2581    2.0009    0.4053 H   0  0  0  0  0  0
   -0.4488    1.5770    2.0910 H   0  0  0  0  0  0
   -1.4736    0.1052   -0.3380 H   0  0  0  0  0  0
   -2.2567    0.2780    1.2272 H   0  0  0  0  0  0
   -1.1244   -2.0876    0.6830 H   0  0  0  0  0  0
   -0.6860   -1.3453    2.2202 H   0  0  0  0  0  0
   -0.0299   -0.0255    7.8761 C   0  0  0  0  0  0
    0.0665    0.1266    6.3605 C   0  0  0  0  0  0
    0.7805    1.4335    6.0248 C   0  0  0  0  0  0
   -1.3385    0.1464    5.7631 C   0  0  0  0  0  0
    0.8544   -1.0469    5.7831 C   0  0  0  0  0  0
    0.9627   -0.0410    8.3285 H   0  0  0  0  0  0
   -0.5888    0.8024    8.3145 H   0  0  0  0  0  0
   -0.5371   -0.9542    8.1414 H   0  0  0  0  0  0
    0.8620    1.5670    4.9451 H   0  0  0  0  0  0
    0.2370    2.2882    6.4303 H   0  0  0  0  0  0
    1.7881    1.4441    6.4431 H   0  0  0  0  0  0
   -1.3016    0.2636    4.6793 H   0  0  0  0  0  0
   -1.9209    0.9738    6.1715 H   0  0  0  0  0  0
   -1.8685   -0.7814    5.9845 H   0  0  0  0  0  0
    0.3591   -1.9939    6.0034 H   0  0  0  0  0  0
    0.9492   -0.9597    4.7000 H   0  0  0  0  0  0
    1.8591   -1.0843    6.2069 H   0  0  0  0  0  0
  1  2  1  0  0  0
  2  3  1  0  0  0
  3  4  1  0  0  0
  4  5  1  0  0  0
  1  5  1  0  0  0
  1  6  1  0  0  0
  1  7  1  0  0  0
  2  8  1  0  0  0
  2  9  1  0  0  0
  3 10  1  0  0  0
  3 11  1  0  0  0
  4 12  1  0  0  0
  4 13  1  0  0  0
  5 14  1  0  0  0
  5 15  1  0  0  0
 16 17  1  0  0  0
 17 18  1  0  0  0
 17 19  1  0  0  0
 17 20  1  0  0  0
 16 21  1  0  0  0
 16 22  1  0  0  0
 16 23  1  0  0  0
 18 24  1  0  0  0
 18 25  1  0  0  0
 18 26  1  0  0  0
 19 27  1  0  0  0
 19 28  1  0  0  0
 19 29  1  0  0  0
 20 30  1  0  0  0
 20 31  1  0  0  0
 20 32  1  0  0  0
M  END
$$$$
