


 32 31  0  0  1  0            999 V2000
    0.7999   -1.0221    0.6877 C   0  0  0  0  0  0
    1.1169    0.4250    1.0997 C   0  0  0  0  0  0
   -0.2446    1.1657    1.1030 C   0  0  0  0  0  0
   -1.2987    0.1038    0.7393 C   0  0  0  0  0  0
   -0.6469   -1.2201    1.1363 C   0  0  0  0  0  0
    0.8536   -1.1221   -0.3980 H   0  0  0  0  0  0
    1.4914   -1.7442    1.1197 H   0  0  0  0  0  0
    1.8381    0.8902    0.4304 H   0  0  0  0  0  0
    1.5556    0.4398    2.0971 H   0  0  0  0  0  0
   -0.2581    2.0009    0.4053 H   0  0  0  0  0  0
   -0.4488    1.5770    2.0910 H   0  0  0  0  0  0
   -1.4736    0.1052   -0.3380 H   0  0  0  0  0  0
   -2.2567    0.2780    1.2272 H   0  0  0  0  0  0
   -1.1244   -2.0876    0.6830 H   0  0  0  0  0  0
   -0.6860   -1.3453    2.2202 H   0  0  0  0  0  0
    0.0145    0.0608    9.8631 C   0  0  0  0  0  0
    0.1108    0.2129    8.3474 C   0  0  0  0  0  0
    0.8249    1.5198    8.0118 C   0  0  0  0  0  0
   -1.2942    0.2328    7.7501 C   0  0  0  0  0  0
    0.8987   -0.9606    7.7701 C   0  0  0  0  0  0
    1.0070    0.0454   10.3154 H   0  0  0  0  0  0
   -0.5445    0.8887   10.3015 H   0  0  0  0  0  0
   -0.4927   -0.8678   10.1284 H   0  0  0  0  0  0
    0.9064    1.6533    6.9321 H   0  0  0  0  0  0
    0.2814    2.3745    8.4173 H   0  0  0  0  0  0
    1.8325    1.5305    8.4300 H   0  0  0  0  0  0
   -1.2573    0.3499    6.6663 H   0  0  0  0  0  0
   -1.8765    1.0602    8.1585 H   0  0  0  0  0  0
   -1.8241   -0.6950    7.9714 H   0  0  0  0  0  0
    0.4035   -1.9075    7.9903 H   0  0  0  0  0  0
    0.9936   -0.8734    6.6870 H   0  0  0  0  0  0
    1.9034   -0.9980    8.1938 H   0  0  0  0  0  0
  1  2  1  0  0  0
  2  3  1  0  0  0
  3  4  1  0  0  0
  4  5  1  0  0  0
  1  5  1  0  0  0
  1  6  1  0  0  0
  1  7  1  0  0  0
  2  8  1  0  0  0
  2  9  1  0  0  0
  3 10  1  0  0  0
  3 11  1  0  0  0
  4 12  1  0  0  0
  4 13  1  0  0  0
  5 14  1  0  0  0
  5 15  1  0  0  0
 16 17  1  0  0  0
 17 18  1  0  0  0
 17 19  1  0  0  0
 17 20  1  0  0  0
 16 21  1  0  0  0
 16 22  1  0  0  0
 16 23  1  0  0  0
 18 24  1  0  0  0
 18 25  1  0  0  0
 18 26  1  0  0  0
 19 27  1  0  0  0
 19 28  1  0  0  0
 19 29  1  0  0  0
 20 30  1  0  0  0
 20 31  1  0  0  0
 20 32  1  0  0  0
M  END
$$$$
