


 14 13  0  0  1  0            999 V2000
   -0.5528   -0.1017   -0.0005 O   0  0  0  0  0  0
   -0.8718    0.8018    0.0001 H   0  0  0  0  0  0
    0.4127   -0.0018   -0.0003 H   0  0  0  0  0  0
    5.4872    0.0498    1.1951 C   0  0  0  0  0  0
    6.1983    0.0167    0.0002 C   0  0  0  0  0  0
    5.4870    0.0498   -1.1946 C   0  0  0  0  0  0
    4.0980    0.1150   -1.1445 C   0  0  0  0  0  0
    3.4022    0.1490    0.0004 N   0  0  0  0  0  0
    4.0981    0.1150    1.1451 C   0  0  0  0  0  0
    5.9931    0.0250    2.1494 H   0  0  0  0  0  0
    7.2782   -0.0351    0.0001 H   0  0  0  0  0  0
    5.9928    0.0249   -2.1490 H   0  0  0  0  0  0
    3.5132    0.1386   -2.0553 H   0  0  0  0  0  0
    3.5135    0.1387    2.0560 H   0  0  0  0  0  0
  1  2  1  0  0  0
  1  3  1  0  0  0
  4  5  1  0  0  0
  5  6  2  0  0  0
  6  7  1  0  0  0
  7  8  2  0  0  0
  8  9  1  0  0  0
  4  9  2  0  0  0
  4 10  1  0  0  0
  5 11  1  0  0  0
  6 12  1  0  0  0
  7 13  1  0  0  0
  9 14  1  0  0  0
M  END
$$$$
