


 14 13  0  0  1  0            999 V2000
   -0.5528   -0.1017   -0.0005 O   0  0  0  0  0  0
   -0.8718    0.8018    0.0001 H   0  0  0  0  0  0
    0.4127   -0.0018   -0.0003 H   0  0  0  0  0  0
    4.9889    0.0247    1.1950 C   0  0  0  0  0  0
    5.7000   -0.0084    0.0001 C   0  0  0  0  0  0
    4.9887    0.0246   -1.1947 C   0  0  0  0  0  0
    3.5997    0.0898   -1.1446 C   0  0  0  0  0  0
    2.9039    0.1239    0.0003 N   0  0  0  0  0  0
    3.5998    0.0899    1.1450 C   0  0  0  0  0  0
    5.4948   -0.0001    2.1493 H   0  0  0  0  0  0
    6.7799   -0.0602    0.0000 H   0  0  0  0  0  0
    5.4945   -0.0002   -2.1491 H   0  0  0  0  0  0
    3.0149    0.1134   -2.0554 H   0  0  0  0  0  0
    3.0152    0.1135    2.0559 H   0  0  0  0  0  0
  1  2  1  0  0  0
  1  3  1  0  0  0
  4  5  1  0  0  0
  5  6  2  0  0  0
  6  7  1  0  0  0
  7  8  2  0  0  0
  8  9  1  0  0  0
  4  9  2  0  0  0
  4 10  1  0  0  0
  5 11  1  0  0  0
  6 12  1  0  0  0
  7 13  1  0  0  0
  9 14  1  0  0  0
M  END
$$$$
