


 14 13  0  0  1  0            999 V2000
   -0.5528   -0.1017   -0.0005 O   0  0  0  0  0  0
   -0.8718    0.8018    0.0001 H   0  0  0  0  0  0
    0.4127   -0.0018   -0.0003 H   0  0  0  0  0  0
    4.4906   -0.0004    1.1949 C   0  0  0  0  0  0
    5.2017   -0.0336   -0.0000 C   0  0  0  0  0  0
    4.4904   -0.0005   -1.1948 C   0  0  0  0  0  0
    3.1014    0.0647   -1.1447 C   0  0  0  0  0  0
    2.4056    0.0987    0.0002 N   0  0  0  0  0  0
    3.1016    0.0648    1.1449 C   0  0  0  0  0  0
    4.9965   -0.0253    2.1492 H   0  0  0  0  0  0
    6.2816   -0.0853   -0.0001 H   0  0  0  0  0  0
    4.9962   -0.0254   -2.1492 H   0  0  0  0  0  0
    2.5166    0.0883   -2.0555 H   0  0  0  0  0  0
    2.5169    0.0884    2.0558 H   0  0  0  0  0  0
  1  2  1  0  0  0
  1  3  1  0  0  0
  4  5  1  0  0  0
  5  6  2  0  0  0
  6  7  1  0  0  0
  7  8  2  0  0  0
  8  9  1  0  0  0
  4  9  2  0  0  0
  4 10  1  0  0  0
  5 11  1  0  0  0
  6 12  1  0  0  0
  7 13  1  0  0  0
  9 14  1  0  0  0
M  END
$$$$
