


 14 13  0  0  1  0            999 V2000
   -0.5528   -0.1017   -0.0005 O   0  0  0  0  0  0
   -0.8718    0.8018    0.0001 H   0  0  0  0  0  0
    0.4127   -0.0018   -0.0003 H   0  0  0  0  0  0
    6.4837    0.1001    1.1953 C   0  0  0  0  0  0
    7.1948    0.0670    0.0004 C   0  0  0  0  0  0
    6.4835    0.1001   -1.1944 C   0  0  0  0  0  0
    5.0945    0.1653   -1.1443 C   0  0  0  0  0  0
    4.3987    0.1993    0.0006 N   0  0  0  0  0  0
    5.0946    0.1653    1.1453 C   0  0  0  0  0  0
    6.9896    0.0753    2.1496 H   0  0  0  0  0  0
    8.2747    0.0152    0.0003 H   0  0  0  0  0  0
    6.9893    0.0752   -2.1488 H   0  0  0  0  0  0
    4.5097    0.1889   -2.0550 H   0  0  0  0  0  0
    4.5100    0.1889    2.0562 H   0  0  0  0  0  0
  1  2  1  0  0  0
  1  3  1  0  0  0
  4  5  1  0  0  0
  5  6  2  0  0  0
  6  7  1  0  0  0
  7  8  2  0  0  0
  8  9  1  0  0  0
  4  9  2  0  0  0
  4 10  1  0  0  0
  5 11  1  0  0  0
  6 12  1  0  0  0
  7 13  1  0  0  0
  9 14  1  0  0  0
M  END
$$$$
