


 14 13  0  0  1  0            999 V2000
   -0.5528   -0.1017   -0.0005 O   0  0  0  0  0  0
   -0.8718    0.8018    0.0001 H   0  0  0  0  0  0
    0.4127   -0.0018   -0.0003 H   0  0  0  0  0  0
    4.3910   -0.0055    1.1949 C   0  0  0  0  0  0
    5.1022   -0.0386   -0.0000 C   0  0  0  0  0  0
    4.3909   -0.0055   -1.1948 C   0  0  0  0  0  0
    3.0018    0.0597   -1.1447 C   0  0  0  0  0  0
    2.3061    0.0937    0.0001 N   0  0  0  0  0  0
    3.0020    0.0597    1.1449 C   0  0  0  0  0  0
    4.8969   -0.0303    2.1492 H   0  0  0  0  0  0
    6.1820   -0.0904   -0.0001 H   0  0  0  0  0  0
    4.8967   -0.0304   -2.1492 H   0  0  0  0  0  0
    2.4171    0.0833   -2.0555 H   0  0  0  0  0  0
    2.4173    0.0833    2.0557 H   0  0  0  0  0  0
  1  2  1  0  0  0
  1  3  1  0  0  0
  4  5  1  0  0  0
  5  6  2  0  0  0
  6  7  1  0  0  0
  7  8  2  0  0  0
  8  9  1  0  0  0
  4  9  2  0  0  0
  4 10  1  0  0  0
  5 11  1  0  0  0
  6 12  1  0  0  0
  7 13  1  0  0  0
  9 14  1  0  0  0
M  END
$$$$
