


 14 13  0  0  1  0            999 V2000
   -0.5528   -0.1017   -0.0005 O   0  0  0  0  0  0
   -0.8718    0.8018    0.0001 H   0  0  0  0  0  0
    0.4127   -0.0018   -0.0003 H   0  0  0  0  0  0
    4.2914   -0.0105    1.1949 C   0  0  0  0  0  0
    5.0025   -0.0436   -0.0000 C   0  0  0  0  0  0
    4.2912   -0.0105   -1.1948 C   0  0  0  0  0  0
    2.9022    0.0547   -1.1447 C   0  0  0  0  0  0
    2.2064    0.0887    0.0001 N   0  0  0  0  0  0
    2.9023    0.0547    1.1449 C   0  0  0  0  0  0
    4.7973   -0.0353    2.1492 H   0  0  0  0  0  0
    6.0824   -0.0954   -0.0001 H   0  0  0  0  0  0
    4.7970   -0.0354   -2.1493 H   0  0  0  0  0  0
    2.3174    0.0782   -2.0555 H   0  0  0  0  0  0
    2.3177    0.0783    2.0557 H   0  0  0  0  0  0
  1  2  1  0  0  0
  1  3  1  0  0  0
  4  5  1  0  0  0
  5  6  2  0  0  0
  6  7  1  0  0  0
  7  8  2  0  0  0
  8  9  1  0  0  0
  4  9  2  0  0  0
  4 10  1  0  0  0
  5 11  1  0  0  0
  6 12  1  0  0  0
  7 13  1  0  0  0
  9 14  1  0  0  0
M  END
$$$$
