


 14 13  0  0  1  0            999 V2000
   -0.5528   -0.1017   -0.0005 O   0  0  0  0  0  0
   -0.8718    0.8018    0.0001 H   0  0  0  0  0  0
    0.4127   -0.0018   -0.0003 H   0  0  0  0  0  0
    4.5903    0.0046    1.1949 C   0  0  0  0  0  0
    5.3015   -0.0285    0.0000 C   0  0  0  0  0  0
    4.5902    0.0045   -1.1948 C   0  0  0  0  0  0
    3.2011    0.0697   -1.1446 C   0  0  0  0  0  0
    2.5054    0.1038    0.0002 N   0  0  0  0  0  0
    3.2013    0.0698    1.1449 C   0  0  0  0  0  0
    5.0962   -0.0203    2.1493 H   0  0  0  0  0  0
    6.3813   -0.0803   -0.0001 H   0  0  0  0  0  0
    5.0960   -0.0203   -2.1492 H   0  0  0  0  0  0
    2.6164    0.0933   -2.0554 H   0  0  0  0  0  0
    2.6166    0.0934    2.0558 H   0  0  0  0  0  0
  1  2  1  0  0  0
  1  3  1  0  0  0
  4  5  1  0  0  0
  5  6  2  0  0  0
  6  7  1  0  0  0
  7  8  2  0  0  0
  8  9  1  0  0  0
  4  9  2  0  0  0
  4 10  1  0  0  0
  5 11  1  0  0  0
  6 12  1  0  0  0
  7 13  1  0  0  0
  9 14  1  0  0  0
M  END
$$$$
