


 14 13  0  0  1  0            999 V2000
   -0.5528   -0.1017   -0.0005 O   0  0  0  0  0  0
   -0.8718    0.8018    0.0001 H   0  0  0  0  0  0
    0.4127   -0.0018   -0.0003 H   0  0  0  0  0  0
    4.6900    0.0096    1.1949 C   0  0  0  0  0  0
    5.4011   -0.0235    0.0000 C   0  0  0  0  0  0
    4.6898    0.0096   -1.1948 C   0  0  0  0  0  0
    3.3008    0.0748   -1.1446 C   0  0  0  0  0  0
    2.6050    0.1088    0.0002 N   0  0  0  0  0  0
    3.3010    0.0748    1.1449 C   0  0  0  0  0  0
    5.1959   -0.0152    2.1493 H   0  0  0  0  0  0
    6.4810   -0.0753   -0.0000 H   0  0  0  0  0  0
    5.1956   -0.0153   -2.1492 H   0  0  0  0  0  0
    2.7160    0.0984   -2.0554 H   0  0  0  0  0  0
    2.7163    0.0984    2.0558 H   0  0  0  0  0  0
  1  2  1  0  0  0
  1  3  1  0  0  0
  4  5  1  0  0  0
  5  6  2  0  0  0
  6  7  1  0  0  0
  7  8  2  0  0  0
  8  9  1  0  0  0
  4  9  2  0  0  0
  4 10  1  0  0  0
  5 11  1  0  0  0
  6 12  1  0  0  0
  7 13  1  0  0  0
  9 14  1  0  0  0
M  END
$$$$
