


 19 17  0  0  1  0            999 V2000
   -0.3055    0.0657    1.3288 C   0  0  0  0  0  0
   -0.5697    0.8144    0.1011 N   0  0  0  0  0  0
   -1.0572    0.3143    2.0760 H   0  0  0  0  0  0
   -0.2880   -1.0223    1.2148 H   0  0  0  0  0  0
    0.6605    0.3685    1.7302 H   0  0  0  0  0  0
    0.1309    0.5614   -0.5876 H   0  0  0  0  0  0
   -1.4612    0.5269   -0.2804 H   0  0  0  0  0  0
    7.3419   -0.5335    0.4118 C   0  0  0  0  0  0
    6.7535    0.7861    0.3343 N   0  0  0  0  0  0
    5.7670    1.0591   -0.5581 C   0  0  0  0  0  0
    5.3070    0.1934   -1.2972 O   0  0  0  0  0  0
    5.2550    2.4769   -0.5604 C   0  0  0  0  0  0
    6.5538   -1.2748    0.3187 H   0  0  0  0  0  0
    8.0632   -0.7055   -0.3868 H   0  0  0  0  0  0
    7.8366   -0.6493    1.3717 H   0  0  0  0  0  0
    7.1533    1.5410    0.8596 H   0  0  0  0  0  0
    5.3796    2.8881   -1.5594 H   0  0  0  0  0  0
    5.7616    3.1179    0.1574 H   0  0  0  0  0  0
    4.1886    2.4504   -0.3419 H   0  0  0  0  0  0
  1  2  1  0  0  0
  1  3  1  0  0  0
  1  4  1  0  0  0
  1  5  1  0  0  0
  2  6  1  0  0  0
  2  7  1  0  0  0
  8  9  1  0  0  0
  9 10  1  0  0  0
 10 11  2  0  0  0
 10 12  1  0  0  0
  8 13  1  0  0  0
  8 14  1  0  0  0
  8 15  1  0  0  0
  9 16  1  0  0  0
 12 17  1  0  0  0
 12 18  1  0  0  0
 12 19  1  0  0  0
M  END
$$$$
