


 19 17  0  0  1  0            999 V2000
    2.8339   -1.1447    0.4450 C   0  0  0  0  0  0
    2.4616    0.2665    0.2912 N   0  0  0  0  0  0
    2.4076   -1.7157   -0.3764 H   0  0  0  0  0  0
    3.9093   -1.3314    0.4708 H   0  0  0  0  0  0
    2.3994   -1.5291    1.3648 H   0  0  0  0  0  0
    2.8653    0.8064    1.0464 H   0  0  0  0  0  0
    2.8796    0.6338   -0.5544 H   0  0  0  0  0  0
   -1.3978   -0.0561   -1.2113 C   0  0  0  0  0  0
   -0.7919   -0.0696    0.1006 N   0  0  0  0  0  0
   -1.5205   -0.4566    1.1723 C   0  0  0  0  0  0
   -2.7008   -0.7836    1.0896 O   0  0  0  0  0  0
   -0.7786   -0.4633    2.4904 C   0  0  0  0  0  0
   -2.3149    0.5289   -1.1997 H   0  0  0  0  0  0
   -0.6988    0.3873   -1.9154 H   0  0  0  0  0  0
   -1.6530   -1.0615   -1.5454 H   0  0  0  0  0  0
    0.1941    0.1457    0.2029 H   0  0  0  0  0  0
    0.2247   -0.0509    2.4135 H   0  0  0  0  0  0
   -0.7225   -1.4871    2.8546 H   0  0  0  0  0  0
   -1.3519    0.1108    3.2137 H   0  0  0  0  0  0
  1  2  1  0  0  0
  1  3  1  0  0  0
  1  4  1  0  0  0
  1  5  1  0  0  0
  2  6  1  0  0  0
  2  7  1  0  0  0
  8  9  1  0  0  0
  9 10  1  0  0  0
 10 11  2  0  0  0
 10 12  1  0  0  0
  8 13  1  0  0  0
  8 14  1  0  0  0
  8 15  1  0  0  0
  9 16  1  0  0  0
 12 17  1  0  0  0
 12 18  1  0  0  0
 12 19  1  0  0  0
M  END
$$$$
