


 19 17  0  0  1  0            999 V2000
   -0.3055    0.0657    1.3288 C   0  0  0  0  0  0
   -0.5697    0.8144    0.1011 N   0  0  0  0  0  0
   -1.0572    0.3143    2.0760 H   0  0  0  0  0  0
   -0.2880   -1.0223    1.2148 H   0  0  0  0  0  0
    0.6605    0.3685    1.7302 H   0  0  0  0  0  0
    0.1309    0.5614   -0.5876 H   0  0  0  0  0  0
   -1.4612    0.5269   -0.2804 H   0  0  0  0  0  0
    4.6024   -0.3387    0.7873 C   0  0  0  0  0  0
    4.0139    0.9809    0.7099 N   0  0  0  0  0  0
    3.0275    1.2539   -0.1825 C   0  0  0  0  0  0
    2.5675    0.3882   -0.9217 O   0  0  0  0  0  0
    2.5155    2.6717   -0.1848 C   0  0  0  0  0  0
    3.8142   -1.0800    0.6943 H   0  0  0  0  0  0
    5.3237   -0.5107   -0.0112 H   0  0  0  0  0  0
    5.0971   -0.4546    1.7473 H   0  0  0  0  0  0
    4.4137    1.7358    1.2352 H   0  0  0  0  0  0
    2.6401    3.0829   -1.1838 H   0  0  0  0  0  0
    3.0220    3.3127    0.5330 H   0  0  0  0  0  0
    1.4491    2.6452    0.0336 H   0  0  0  0  0  0
  1  2  1  0  0  0
  1  3  1  0  0  0
  1  4  1  0  0  0
  1  5  1  0  0  0
  2  6  1  0  0  0
  2  7  1  0  0  0
  8  9  1  0  0  0
  9 10  1  0  0  0
 10 11  2  0  0  0
 10 12  1  0  0  0
  8 13  1  0  0  0
  8 14  1  0  0  0
  8 15  1  0  0  0
  9 16  1  0  0  0
 12 17  1  0  0  0
 12 18  1  0  0  0
 12 19  1  0  0  0
M  END
$$$$
