


 19 17  0  0  1  0            999 V2000
   -0.3055    0.0657    1.3288 C   0  0  0  0  0  0
   -0.5697    0.8144    0.1011 N   0  0  0  0  0  0
   -1.0572    0.3143    2.0760 H   0  0  0  0  0  0
   -0.2880   -1.0223    1.2148 H   0  0  0  0  0  0
    0.6605    0.3685    1.7302 H   0  0  0  0  0  0
    0.1309    0.5614   -0.5876 H   0  0  0  0  0  0
   -1.4612    0.5269   -0.2804 H   0  0  0  0  0  0
    5.9609   -0.4353    0.6011 C   0  0  0  0  0  0
    5.3725    0.8843    0.5236 N   0  0  0  0  0  0
    4.3860    1.1573   -0.3687 C   0  0  0  0  0  0
    3.9260    0.2916   -1.1079 O   0  0  0  0  0  0
    3.8740    2.5751   -0.3710 C   0  0  0  0  0  0
    5.1727   -1.1766    0.5081 H   0  0  0  0  0  0
    6.6822   -0.6073   -0.1974 H   0  0  0  0  0  0
    6.4556   -0.5512    1.5610 H   0  0  0  0  0  0
    5.7722    1.6392    1.0490 H   0  0  0  0  0  0
    3.9986    2.9863   -1.3701 H   0  0  0  0  0  0
    4.3806    3.2161    0.3468 H   0  0  0  0  0  0
    2.8076    2.5486   -0.1526 H   0  0  0  0  0  0
  1  2  1  0  0  0
  1  3  1  0  0  0
  1  4  1  0  0  0
  1  5  1  0  0  0
  2  6  1  0  0  0
  2  7  1  0  0  0
  8  9  1  0  0  0
  9 10  1  0  0  0
 10 11  2  0  0  0
 10 12  1  0  0  0
  8 13  1  0  0  0
  8 14  1  0  0  0
  8 15  1  0  0  0
  9 16  1  0  0  0
 12 17  1  0  0  0
 12 18  1  0  0  0
 12 19  1  0  0  0
M  END
$$$$
