


 19 17  0  0  1  0            999 V2000
    3.6584   -1.1008    0.4771 C   0  0  0  0  0  0
    3.2861    0.3104    0.3233 N   0  0  0  0  0  0
    3.2321   -1.6718   -0.3443 H   0  0  0  0  0  0
    4.7338   -1.2875    0.5028 H   0  0  0  0  0  0
    3.2239   -1.4852    1.3969 H   0  0  0  0  0  0
    3.6897    0.8503    1.0785 H   0  0  0  0  0  0
    3.7041    0.6778   -0.5223 H   0  0  0  0  0  0
   -1.3978   -0.0561   -1.2113 C   0  0  0  0  0  0
   -0.7919   -0.0696    0.1006 N   0  0  0  0  0  0
   -1.5205   -0.4566    1.1723 C   0  0  0  0  0  0
   -2.7008   -0.7836    1.0896 O   0  0  0  0  0  0
   -0.7786   -0.4633    2.4904 C   0  0  0  0  0  0
   -2.3149    0.5289   -1.1997 H   0  0  0  0  0  0
   -0.6988    0.3873   -1.9154 H   0  0  0  0  0  0
   -1.6530   -1.0615   -1.5454 H   0  0  0  0  0  0
    0.1941    0.1457    0.2029 H   0  0  0  0  0  0
    0.2247   -0.0509    2.4135 H   0  0  0  0  0  0
   -0.7225   -1.4871    2.8546 H   0  0  0  0  0  0
   -1.3519    0.1108    3.2137 H   0  0  0  0  0  0
  1  2  1  0  0  0
  1  3  1  0  0  0
  1  4  1  0  0  0
  1  5  1  0  0  0
  2  6  1  0  0  0
  2  7  1  0  0  0
  8  9  1  0  0  0
  9 10  1  0  0  0
 10 11  2  0  0  0
 10 12  1  0  0  0
  8 13  1  0  0  0
  8 14  1  0  0  0
  8 15  1  0  0  0
  9 16  1  0  0  0
 12 17  1  0  0  0
 12 18  1  0  0  0
 12 19  1  0  0  0
M  END
$$$$
