


 19 17  0  0  1  0            999 V2000
   -0.3055    0.0657    1.3288 C   0  0  0  0  0  0
   -0.5697    0.8144    0.1011 N   0  0  0  0  0  0
   -1.0572    0.3143    2.0760 H   0  0  0  0  0  0
   -0.2880   -1.0223    1.2148 H   0  0  0  0  0  0
    0.6605    0.3685    1.7302 H   0  0  0  0  0  0
    0.1309    0.5614   -0.5876 H   0  0  0  0  0  0
   -1.4612    0.5269   -0.2804 H   0  0  0  0  0  0
    4.1594   -0.3072    0.8481 C   0  0  0  0  0  0
    3.5710    1.0124    0.7706 N   0  0  0  0  0  0
    2.5845    1.2854   -0.1217 C   0  0  0  0  0  0
    2.1245    0.4197   -0.8609 O   0  0  0  0  0  0
    2.0725    2.7032   -0.1240 C   0  0  0  0  0  0
    3.3712   -1.0485    0.7551 H   0  0  0  0  0  0
    4.8807   -0.4792    0.0495 H   0  0  0  0  0  0
    4.6540   -0.4231    1.8080 H   0  0  0  0  0  0
    3.9707    1.7673    1.2959 H   0  0  0  0  0  0
    2.1971    3.1144   -1.1231 H   0  0  0  0  0  0
    2.5791    3.3442    0.5937 H   0  0  0  0  0  0
    1.0061    2.6767    0.0944 H   0  0  0  0  0  0
  1  2  1  0  0  0
  1  3  1  0  0  0
  1  4  1  0  0  0
  1  5  1  0  0  0
  2  6  1  0  0  0
  2  7  1  0  0  0
  8  9  1  0  0  0
  9 10  1  0  0  0
 10 11  2  0  0  0
 10 12  1  0  0  0
  8 13  1  0  0  0
  8 14  1  0  0  0
  8 15  1  0  0  0
  9 16  1  0  0  0
 12 17  1  0  0  0
 12 18  1  0  0  0
 12 19  1  0  0  0
M  END
$$$$
