


 19 17  0  0  1  0            999 V2000
   -0.3055    0.0657    1.3288 C   0  0  0  0  0  0
   -0.5697    0.8144    0.1011 N   0  0  0  0  0  0
   -1.0572    0.3143    2.0760 H   0  0  0  0  0  0
   -0.2880   -1.0223    1.2148 H   0  0  0  0  0  0
    0.6605    0.3685    1.7302 H   0  0  0  0  0  0
    0.1309    0.5614   -0.5876 H   0  0  0  0  0  0
   -1.4612    0.5269   -0.2804 H   0  0  0  0  0  0
    4.4917   -0.3308    0.8025 C   0  0  0  0  0  0
    3.9032    0.9888    0.7250 N   0  0  0  0  0  0
    2.9167    1.2618   -0.1673 C   0  0  0  0  0  0
    2.4567    0.3961   -0.9065 O   0  0  0  0  0  0
    2.4047    2.6796   -0.1696 C   0  0  0  0  0  0
    3.7035   -1.0722    0.7095 H   0  0  0  0  0  0
    5.2129   -0.5028    0.0040 H   0  0  0  0  0  0
    4.9863   -0.4467    1.7625 H   0  0  0  0  0  0
    4.3030    1.7437    1.2504 H   0  0  0  0  0  0
    2.5294    3.0908   -1.1686 H   0  0  0  0  0  0
    2.9113    3.3206    0.5482 H   0  0  0  0  0  0
    1.3383    2.6531    0.0488 H   0  0  0  0  0  0
  1  2  1  0  0  0
  1  3  1  0  0  0
  1  4  1  0  0  0
  1  5  1  0  0  0
  2  6  1  0  0  0
  2  7  1  0  0  0
  8  9  1  0  0  0
  9 10  1  0  0  0
 10 11  2  0  0  0
 10 12  1  0  0  0
  8 13  1  0  0  0
  8 14  1  0  0  0
  8 15  1  0  0  0
  9 16  1  0  0  0
 12 17  1  0  0  0
 12 18  1  0  0  0
 12 19  1  0  0  0
M  END
$$$$
