


 19 17  0  0  1  0            999 V2000
   -0.3055    0.0657    1.3288 C   0  0  0  0  0  0
   -0.5697    0.8144    0.1011 N   0  0  0  0  0  0
   -1.0572    0.3143    2.0760 H   0  0  0  0  0  0
   -0.2880   -1.0223    1.2148 H   0  0  0  0  0  0
    0.6605    0.3685    1.7302 H   0  0  0  0  0  0
    0.1309    0.5614   -0.5876 H   0  0  0  0  0  0
   -1.4612    0.5269   -0.2804 H   0  0  0  0  0  0
    4.3808   -0.3230    0.8177 C   0  0  0  0  0  0
    3.7924    0.9966    0.7402 N   0  0  0  0  0  0
    2.8059    1.2697   -0.1521 C   0  0  0  0  0  0
    2.3459    0.4039   -0.8913 O   0  0  0  0  0  0
    2.2939    2.6875   -0.1544 C   0  0  0  0  0  0
    3.5926   -1.0643    0.7247 H   0  0  0  0  0  0
    5.1021   -0.4949    0.0192 H   0  0  0  0  0  0
    4.8755   -0.4388    1.7777 H   0  0  0  0  0  0
    4.1921    1.7516    1.2656 H   0  0  0  0  0  0
    2.4185    3.0986   -1.1534 H   0  0  0  0  0  0
    2.8005    3.3285    0.5634 H   0  0  0  0  0  0
    1.2275    2.6609    0.0640 H   0  0  0  0  0  0
  1  2  1  0  0  0
  1  3  1  0  0  0
  1  4  1  0  0  0
  1  5  1  0  0  0
  2  6  1  0  0  0
  2  7  1  0  0  0
  8  9  1  0  0  0
  9 10  1  0  0  0
 10 11  2  0  0  0
 10 12  1  0  0  0
  8 13  1  0  0  0
  8 14  1  0  0  0
  8 15  1  0  0  0
  9 16  1  0  0  0
 12 17  1  0  0  0
 12 18  1  0  0  0
 12 19  1  0  0  0
M  END
$$$$
