


 19 17  0  0  1  0            999 V2000
    2.5247   -1.1612    0.4329 C   0  0  0  0  0  0
    2.1524    0.2500    0.2792 N   0  0  0  0  0  0
    2.0984   -1.7322   -0.3884 H   0  0  0  0  0  0
    3.6001   -1.3479    0.4587 H   0  0  0  0  0  0
    2.0902   -1.5456    1.3528 H   0  0  0  0  0  0
    2.5561    0.7899    1.0344 H   0  0  0  0  0  0
    2.5704    0.6174   -0.5665 H   0  0  0  0  0  0
   -1.3978   -0.0561   -1.2113 C   0  0  0  0  0  0
   -0.7919   -0.0696    0.1006 N   0  0  0  0  0  0
   -1.5205   -0.4566    1.1723 C   0  0  0  0  0  0
   -2.7008   -0.7836    1.0896 O   0  0  0  0  0  0
   -0.7786   -0.4633    2.4904 C   0  0  0  0  0  0
   -2.3149    0.5289   -1.1997 H   0  0  0  0  0  0
   -0.6988    0.3873   -1.9154 H   0  0  0  0  0  0
   -1.6530   -1.0615   -1.5454 H   0  0  0  0  0  0
    0.1941    0.1457    0.2029 H   0  0  0  0  0  0
    0.2247   -0.0509    2.4135 H   0  0  0  0  0  0
   -0.7225   -1.4871    2.8546 H   0  0  0  0  0  0
   -1.3519    0.1108    3.2137 H   0  0  0  0  0  0
  1  2  1  0  0  0
  1  3  1  0  0  0
  1  4  1  0  0  0
  1  5  1  0  0  0
  2  6  1  0  0  0
  2  7  1  0  0  0
  8  9  1  0  0  0
  9 10  1  0  0  0
 10 11  2  0  0  0
 10 12  1  0  0  0
  8 13  1  0  0  0
  8 14  1  0  0  0
  8 15  1  0  0  0
  9 16  1  0  0  0
 12 17  1  0  0  0
 12 18  1  0  0  0
 12 19  1  0  0  0
M  END
$$$$
