


 19 17  0  0  1  0            999 V2000
   -0.3055    0.0657    1.3288 C   0  0  0  0  0  0
   -0.5697    0.8144    0.1011 N   0  0  0  0  0  0
   -1.0572    0.3143    2.0760 H   0  0  0  0  0  0
   -0.2880   -1.0223    1.2148 H   0  0  0  0  0  0
    0.6605    0.3685    1.7302 H   0  0  0  0  0  0
    0.1309    0.5614   -0.5876 H   0  0  0  0  0  0
   -1.4612    0.5269   -0.2804 H   0  0  0  0  0  0
    4.2702   -0.3151    0.8329 C   0  0  0  0  0  0
    3.6817    1.0045    0.7554 N   0  0  0  0  0  0
    2.6952    1.2775   -0.1369 C   0  0  0  0  0  0
    2.2352    0.4118   -0.8761 O   0  0  0  0  0  0
    2.1832    2.6953   -0.1392 C   0  0  0  0  0  0
    3.4820   -1.0564    0.7399 H   0  0  0  0  0  0
    4.9914   -0.4871    0.0344 H   0  0  0  0  0  0
    4.7648   -0.4309    1.7928 H   0  0  0  0  0  0
    4.0815    1.7594    1.2808 H   0  0  0  0  0  0
    2.3078    3.1065   -1.1383 H   0  0  0  0  0  0
    2.6898    3.3363    0.5786 H   0  0  0  0  0  0
    1.1168    2.6688    0.0792 H   0  0  0  0  0  0
  1  2  1  0  0  0
  1  3  1  0  0  0
  1  4  1  0  0  0
  1  5  1  0  0  0
  2  6  1  0  0  0
  2  7  1  0  0  0
  8  9  1  0  0  0
  9 10  1  0  0  0
 10 11  2  0  0  0
 10 12  1  0  0  0
  8 13  1  0  0  0
  8 14  1  0  0  0
  8 15  1  0  0  0
  9 16  1  0  0  0
 12 17  1  0  0  0
 12 18  1  0  0  0
 12 19  1  0  0  0
M  END
$$$$
