


 19 17  0  0  1  0            999 V2000
   -0.3055    0.0657    1.3288 C   0  0  0  0  0  0
   -0.5697    0.8144    0.1011 N   0  0  0  0  0  0
   -1.0572    0.3143    2.0760 H   0  0  0  0  0  0
   -0.2880   -1.0223    1.2148 H   0  0  0  0  0  0
    0.6605    0.3685    1.7302 H   0  0  0  0  0  0
    0.1309    0.5614   -0.5876 H   0  0  0  0  0  0
   -1.4612    0.5269   -0.2804 H   0  0  0  0  0  0
    5.1157   -0.3752    0.7170 C   0  0  0  0  0  0
    4.5273    0.9444    0.6395 N   0  0  0  0  0  0
    3.5408    1.2174   -0.2528 C   0  0  0  0  0  0
    3.0808    0.3517   -0.9920 O   0  0  0  0  0  0
    3.0288    2.6352   -0.2551 C   0  0  0  0  0  0
    4.3275   -1.1165    0.6240 H   0  0  0  0  0  0
    5.8370   -0.5472   -0.0816 H   0  0  0  0  0  0
    5.6104   -0.4911    1.6769 H   0  0  0  0  0  0
    4.9270    1.6993    1.1648 H   0  0  0  0  0  0
    3.1534    3.0464   -1.2542 H   0  0  0  0  0  0
    3.5354    3.2762    0.4626 H   0  0  0  0  0  0
    1.9624    2.6087   -0.0367 H   0  0  0  0  0  0
  1  2  1  0  0  0
  1  3  1  0  0  0
  1  4  1  0  0  0
  1  5  1  0  0  0
  2  6  1  0  0  0
  2  7  1  0  0  0
  8  9  1  0  0  0
  9 10  1  0  0  0
 10 11  2  0  0  0
 10 12  1  0  0  0
  8 13  1  0  0  0
  8 14  1  0  0  0
  8 15  1  0  0  0
  9 16  1  0  0  0
 12 17  1  0  0  0
 12 18  1  0  0  0
 12 19  1  0  0  0
M  END
$$$$
